glm/13_node_feder_whs.glm
clock {
	timestamp '2021-12-25 0:00:00';
	stoptime '2021-12-25 23:59:00';
};
module tape {
};

module powerflow {
	solver_method FBS;
	default_maximum_voltage_error 1e-9;
	line_limits TRUE;
};


module climate {
};

module residential {
	implicit_enduses NONE;
	ANSI_voltage_check TRUE;
};

#include "./downstream_objects.glm";

class player {
    double value;
}

object player {
	name wd_652_1;
	file "../wd_files/wd_1.csv";
};
object player {
	name wd_652_2;
	file "../wd_files/wd_2.csv";
};
object player {
	name wd_652_3;
	file "../wd_files/wd_3.csv";
};
object player {
	name wd_652_4;
	file "../wd_files/wd_4.csv";
};
object player {
	name wd_652_5;
	file "../wd_files/wd_5.csv";
};
object player {
	name wd_652_6;
	file "../wd_files/wd_6.csv";
};
object player {
	name wd_652_7;
	file "../wd_files/wd_7.csv";
};
object player {
	name wd_652_8;
	file "../wd_files/wd_8.csv";
};
object player {
	name wd_652_9;
	file "../wd_files/wd_9.csv";
};
object player {
	name wd_652_10;
	file "../wd_files/wd_10.csv";
};
object player {
	name wd_652_11;
	file "../wd_files/wd_11.csv";
};
object player {
	name wd_652_12;
	file "../wd_files/wd_12.csv";
};
object player {
	name wd_652_13;
	file "../wd_files/wd_13.csv";
};
object player {
	name wd_652_14;
	file "../wd_files/wd_14.csv";
};
object player {
	name wd_652_15;
	file "../wd_files/wd_15.csv";
};
object player {
	name wd_652_16;
	file "../wd_files/wd_16.csv";
};
object player {
	name wd_652_17;
	file "../wd_files/wd_17.csv";
};
object player {
	name wd_652_18;
	file "../wd_files/wd_18.csv";
};
object player {
	name wd_652_19;
	file "../wd_files/wd_19.csv";
};
object player {
	name wd_652_20;
	file "../wd_files/wd_20.csv";
};
object player {
	name wd_652_21;
	file "../wd_files/wd_21.csv";
};
object player {
	name wd_652_22;
	file "../wd_files/wd_22.csv";
};
object player {
	name wd_652_23;
	file "../wd_files/wd_23.csv";
};
object player {
	name wd_652_24;
	file "../wd_files/wd_24.csv";
};
object player {
	name wd_652_25;
	file "../wd_files/wd_25.csv";
};
object player {
	name wd_652_26;
	file "../wd_files/wd_26.csv";
};
object player {
	name wd_652_27;
	file "../wd_files/wd_27.csv";
};
object player {
	name wd_652_28;
	file "../wd_files/wd_28.csv";
};
object player {
	name wd_652_29;
	file "../wd_files/wd_29.csv";
};
object player {
	name wd_652_30;
	file "../wd_files/wd_30.csv";
};
object player {
	name wd_652_31;
	file "../wd_files/wd_31.csv";
};
object player {
	name wd_652_32;
	file "../wd_files/wd_32.csv";
};
object player {
	name wd_652_33;
	file "../wd_files/wd_33.csv";
};
object player {
	name wd_652_34;
	file "../wd_files/wd_34.csv";
};
object player {
	name wd_652_35;
	file "../wd_files/wd_35.csv";
};
object player {
	name wd_652_36;
	file "../wd_files/wd_36.csv";
};
object player {
	name wd_652_37;
	file "../wd_files/wd_37.csv";
};
object player {
	name wd_652_38;
	file "../wd_files/wd_38.csv";
};
object player {
	name wd_652_39;
	file "../wd_files/wd_39.csv";
};
object player {
	name wd_652_40;
	file "../wd_files/wd_40.csv";
};
object player {
	name wd_611_41;
	file "../wd_files/wd_41.csv";
};
object player {
	name wd_611_42;
	file "../wd_files/wd_42.csv";
};
object player {
	name wd_611_43;
	file "../wd_files/wd_43.csv";
};
object player {
	name wd_611_44;
	file "../wd_files/wd_44.csv";
};
object player {
	name wd_611_45;
	file "../wd_files/wd_45.csv";
};
object player {
	name wd_611_46;
	file "../wd_files/wd_46.csv";
};
object player {
	name wd_611_47;
	file "../wd_files/wd_47.csv";
};
object player {
	name wd_611_48;
	file "../wd_files/wd_48.csv";
};
object player {
	name wd_611_49;
	file "../wd_files/wd_49.csv";
};
object player {
	name wd_611_50;
	file "../wd_files/wd_50.csv";
};
object player {
	name wd_611_51;
	file "../wd_files/wd_51.csv";
};
object player {
	name wd_611_52;
	file "../wd_files/wd_52.csv";
};
object player {
	name wd_611_53;
	file "../wd_files/wd_53.csv";
};
object player {
	name wd_611_54;
	file "../wd_files/wd_54.csv";
};
object player {
	name wd_611_55;
	file "../wd_files/wd_55.csv";
};
object player {
	name wd_611_56;
	file "../wd_files/wd_56.csv";
};
object player {
	name wd_611_57;
	file "../wd_files/wd_57.csv";
};
object player {
	name wd_611_58;
	file "../wd_files/wd_58.csv";
};
object player {
	name wd_611_59;
	file "../wd_files/wd_59.csv";
};
object player {
	name wd_611_60;
	file "../wd_files/wd_60.csv";
};
object player {
	name wd_611_61;
	file "../wd_files/wd_61.csv";
};
object player {
	name wd_611_62;
	file "../wd_files/wd_62.csv";
};
object player {
	name wd_611_63;
	file "../wd_files/wd_63.csv";
};
object player {
	name wd_611_64;
	file "../wd_files/wd_64.csv";
};
object player {
	name wd_611_65;
	file "../wd_files/wd_65.csv";
};
object player {
	name wd_611_66;
	file "../wd_files/wd_66.csv";
};
object player {
	name wd_611_67;
	file "../wd_files/wd_67.csv";
};
object player {
	name wd_611_68;
	file "../wd_files/wd_68.csv";
};
object player {
	name wd_611_69;
	file "../wd_files/wd_69.csv";
};
object player {
	name wd_611_70;
	file "../wd_files/wd_70.csv";
};
object player {
	name wd_611_71;
	file "../wd_files/wd_71.csv";
};
object player {
	name wd_611_72;
	file "../wd_files/wd_72.csv";
};
object player {
	name wd_611_73;
	file "../wd_files/wd_73.csv";
};
object player {
	name wd_611_74;
	file "../wd_files/wd_74.csv";
};
object player {
	name wd_611_75;
	file "../wd_files/wd_75.csv";
};
object player {
	name wd_611_76;
	file "../wd_files/wd_76.csv";
};
object player {
	name wd_611_77;
	file "../wd_files/wd_77.csv";
};
object player {
	name wd_611_78;
	file "../wd_files/wd_78.csv";
};
object player {
	name wd_611_79;
	file "../wd_files/wd_79.csv";
};
object player {
	name wd_611_80;
	file "../wd_files/wd_80.csv";
};
object player {
	name wd_684_81;
	file "../wd_files/wd_81.csv";
};
object player {
	name wd_684_82;
	file "../wd_files/wd_82.csv";
};
object player {
	name wd_684_83;
	file "../wd_files/wd_83.csv";
};
object player {
	name wd_684_84;
	file "../wd_files/wd_84.csv";
};
object player {
	name wd_684_85;
	file "../wd_files/wd_85.csv";
};
object player {
	name wd_684_86;
	file "../wd_files/wd_86.csv";
};
object player {
	name wd_684_87;
	file "../wd_files/wd_87.csv";
};
object player {
	name wd_684_88;
	file "../wd_files/wd_88.csv";
};
object player {
	name wd_684_89;
	file "../wd_files/wd_89.csv";
};
object player {
	name wd_684_90;
	file "../wd_files/wd_90.csv";
};
object player {
	name wd_684_91;
	file "../wd_files/wd_91.csv";
};
object player {
	name wd_684_92;
	file "../wd_files/wd_92.csv";
};
object player {
	name wd_684_93;
	file "../wd_files/wd_93.csv";
};
object player {
	name wd_684_94;
	file "../wd_files/wd_94.csv";
};
object player {
	name wd_684_95;
	file "../wd_files/wd_95.csv";
};
object player {
	name wd_684_96;
	file "../wd_files/wd_96.csv";
};
object player {
	name wd_684_97;
	file "../wd_files/wd_97.csv";
};
object player {
	name wd_684_98;
	file "../wd_files/wd_98.csv";
};
object player {
	name wd_684_99;
	file "../wd_files/wd_99.csv";
};
object player {
	name wd_684_100;
	file "../wd_files/wd_100.csv";
};
object player {
	name wd_684_101;
	file "../wd_files/wd_101.csv";
};
object player {
	name wd_684_102;
	file "../wd_files/wd_102.csv";
};
object player {
	name wd_684_103;
	file "../wd_files/wd_103.csv";
};
object player {
	name wd_684_104;
	file "../wd_files/wd_104.csv";
};
object player {
	name wd_684_105;
	file "../wd_files/wd_105.csv";
};
object player {
	name wd_684_106;
	file "../wd_files/wd_106.csv";
};
object player {
	name wd_684_107;
	file "../wd_files/wd_107.csv";
};
object player {
	name wd_684_108;
	file "../wd_files/wd_108.csv";
};
object player {
	name wd_684_109;
	file "../wd_files/wd_109.csv";
};
object player {
	name wd_684_110;
	file "../wd_files/wd_110.csv";
};
object player {
	name wd_684_111;
	file "../wd_files/wd_111.csv";
};
object player {
	name wd_684_112;
	file "../wd_files/wd_112.csv";
};
object player {
	name wd_684_113;
	file "../wd_files/wd_113.csv";
};
object player {
	name wd_684_114;
	file "../wd_files/wd_114.csv";
};
object player {
	name wd_684_115;
	file "../wd_files/wd_115.csv";
};
object player {
	name wd_684_116;
	file "../wd_files/wd_116.csv";
};
object player {
	name wd_684_117;
	file "../wd_files/wd_117.csv";
};
object player {
	name wd_684_118;
	file "../wd_files/wd_118.csv";
};
object player {
	name wd_684_119;
	file "../wd_files/wd_119.csv";
};
object player {
	name wd_684_120;
	file "../wd_files/wd_120.csv";
};
object player {
	name wd_684_121;
	file "../wd_files/wd_121.csv";
};
object player {
	name wd_684_122;
	file "../wd_files/wd_122.csv";
};
object player {
	name wd_684_123;
	file "../wd_files/wd_123.csv";
};
object player {
	name wd_684_124;
	file "../wd_files/wd_124.csv";
};
object player {
	name wd_684_125;
	file "../wd_files/wd_125.csv";
};
object player {
	name wd_684_126;
	file "../wd_files/wd_126.csv";
};
object player {
	name wd_684_127;
	file "../wd_files/wd_127.csv";
};
object player {
	name wd_684_128;
	file "../wd_files/wd_128.csv";
};
object player {
	name wd_684_129;
	file "../wd_files/wd_129.csv";
};
object player {
	name wd_684_130;
	file "../wd_files/wd_130.csv";
};
object player {
	name wd_684_131;
	file "../wd_files/wd_131.csv";
};
object player {
	name wd_684_132;
	file "../wd_files/wd_132.csv";
};
object player {
	name wd_684_133;
	file "../wd_files/wd_133.csv";
};
object player {
	name wd_684_134;
	file "../wd_files/wd_134.csv";
};
object player {
	name wd_684_135;
	file "../wd_files/wd_135.csv";
};
object player {
	name wd_684_136;
	file "../wd_files/wd_136.csv";
};
object player {
	name wd_684_137;
	file "../wd_files/wd_137.csv";
};
object player {
	name wd_684_138;
	file "../wd_files/wd_138.csv";
};
object player {
	name wd_684_139;
	file "../wd_files/wd_139.csv";
};
object player {
	name wd_684_140;
	file "../wd_files/wd_140.csv";
};
object player {
	name wd_684_141;
	file "../wd_files/wd_141.csv";
};
object player {
	name wd_684_142;
	file "../wd_files/wd_142.csv";
};
object player {
	name wd_684_143;
	file "../wd_files/wd_143.csv";
};
object player {
	name wd_684_144;
	file "../wd_files/wd_144.csv";
};
object player {
	name wd_684_145;
	file "../wd_files/wd_145.csv";
};
object player {
	name wd_684_146;
	file "../wd_files/wd_146.csv";
};
object player {
	name wd_684_147;
	file "../wd_files/wd_147.csv";
};
object player {
	name wd_684_148;
	file "../wd_files/wd_148.csv";
};
object player {
	name wd_684_149;
	file "../wd_files/wd_149.csv";
};
object player {
	name wd_684_150;
	file "../wd_files/wd_150.csv";
};
object player {
	name wd_684_151;
	file "../wd_files/wd_151.csv";
};
object player {
	name wd_684_152;
	file "../wd_files/wd_152.csv";
};
object player {
	name wd_684_153;
	file "../wd_files/wd_153.csv";
};
object player {
	name wd_684_154;
	file "../wd_files/wd_154.csv";
};
object player {
	name wd_684_155;
	file "../wd_files/wd_155.csv";
};
object player {
	name wd_684_156;
	file "../wd_files/wd_156.csv";
};
object player {
	name wd_684_157;
	file "../wd_files/wd_157.csv";
};
object player {
	name wd_684_158;
	file "../wd_files/wd_158.csv";
};
object player {
	name wd_684_159;
	file "../wd_files/wd_159.csv";
};
object player {
	name wd_684_160;
	file "../wd_files/wd_160.csv";
};
object player {
	name wd_645_161;
	file "../wd_files/wd_161.csv";
};
object player {
	name wd_645_162;
	file "../wd_files/wd_162.csv";
};
object player {
	name wd_645_163;
	file "../wd_files/wd_163.csv";
};
object player {
	name wd_645_164;
	file "../wd_files/wd_164.csv";
};
object player {
	name wd_645_165;
	file "../wd_files/wd_165.csv";
};
object player {
	name wd_645_166;
	file "../wd_files/wd_166.csv";
};
object player {
	name wd_645_167;
	file "../wd_files/wd_167.csv";
};
object player {
	name wd_645_168;
	file "../wd_files/wd_168.csv";
};
object player {
	name wd_645_169;
	file "../wd_files/wd_169.csv";
};
object player {
	name wd_645_170;
	file "../wd_files/wd_170.csv";
};
object player {
	name wd_645_171;
	file "../wd_files/wd_171.csv";
};
object player {
	name wd_645_172;
	file "../wd_files/wd_172.csv";
};
object player {
	name wd_645_173;
	file "../wd_files/wd_173.csv";
};
object player {
	name wd_645_174;
	file "../wd_files/wd_174.csv";
};
object player {
	name wd_645_175;
	file "../wd_files/wd_175.csv";
};
object player {
	name wd_645_176;
	file "../wd_files/wd_176.csv";
};
object player {
	name wd_645_177;
	file "../wd_files/wd_177.csv";
};
object player {
	name wd_645_178;
	file "../wd_files/wd_178.csv";
};
object player {
	name wd_645_179;
	file "../wd_files/wd_179.csv";
};
object player {
	name wd_645_180;
	file "../wd_files/wd_180.csv";
};
object player {
	name wd_645_181;
	file "../wd_files/wd_181.csv";
};
object player {
	name wd_645_182;
	file "../wd_files/wd_182.csv";
};
object player {
	name wd_645_183;
	file "../wd_files/wd_183.csv";
};
object player {
	name wd_645_184;
	file "../wd_files/wd_184.csv";
};
object player {
	name wd_645_185;
	file "../wd_files/wd_185.csv";
};
object player {
	name wd_645_186;
	file "../wd_files/wd_186.csv";
};
object player {
	name wd_645_187;
	file "../wd_files/wd_187.csv";
};
object player {
	name wd_645_188;
	file "../wd_files/wd_188.csv";
};
object player {
	name wd_645_189;
	file "../wd_files/wd_189.csv";
};
object player {
	name wd_645_190;
	file "../wd_files/wd_190.csv";
};
object player {
	name wd_645_191;
	file "../wd_files/wd_191.csv";
};
object player {
	name wd_645_192;
	file "../wd_files/wd_192.csv";
};
object player {
	name wd_645_193;
	file "../wd_files/wd_193.csv";
};
object player {
	name wd_645_194;
	file "../wd_files/wd_194.csv";
};
object player {
	name wd_645_195;
	file "../wd_files/wd_195.csv";
};
object player {
	name wd_645_196;
	file "../wd_files/wd_196.csv";
};
object player {
	name wd_645_197;
	file "../wd_files/wd_197.csv";
};
object player {
	name wd_645_198;
	file "../wd_files/wd_198.csv";
};
object player {
	name wd_645_199;
	file "../wd_files/wd_199.csv";
};
object player {
	name wd_645_200;
	file "../wd_files/wd_200.csv";
};
object player {
	name wd_645_201;
	file "../wd_files/wd_201.csv";
};
object player {
	name wd_645_202;
	file "../wd_files/wd_202.csv";
};
object player {
	name wd_645_203;
	file "../wd_files/wd_203.csv";
};
object player {
	name wd_645_204;
	file "../wd_files/wd_204.csv";
};
object player {
	name wd_645_205;
	file "../wd_files/wd_205.csv";
};
object player {
	name wd_645_206;
	file "../wd_files/wd_206.csv";
};
object player {
	name wd_645_207;
	file "../wd_files/wd_207.csv";
};
object player {
	name wd_645_208;
	file "../wd_files/wd_208.csv";
};
object player {
	name wd_645_209;
	file "../wd_files/wd_209.csv";
};
object player {
	name wd_645_210;
	file "../wd_files/wd_210.csv";
};
object player {
	name wd_645_211;
	file "../wd_files/wd_211.csv";
};
object player {
	name wd_645_212;
	file "../wd_files/wd_212.csv";
};
object player {
	name wd_645_213;
	file "../wd_files/wd_213.csv";
};
object player {
	name wd_645_214;
	file "../wd_files/wd_214.csv";
};
object player {
	name wd_645_215;
	file "../wd_files/wd_215.csv";
};
object player {
	name wd_645_216;
	file "../wd_files/wd_216.csv";
};
object player {
	name wd_645_217;
	file "../wd_files/wd_217.csv";
};
object player {
	name wd_645_218;
	file "../wd_files/wd_218.csv";
};
object player {
	name wd_645_219;
	file "../wd_files/wd_219.csv";
};
object player {
	name wd_645_220;
	file "../wd_files/wd_220.csv";
};
object player {
	name wd_645_221;
	file "../wd_files/wd_221.csv";
};
object player {
	name wd_645_222;
	file "../wd_files/wd_222.csv";
};
object player {
	name wd_645_223;
	file "../wd_files/wd_223.csv";
};
object player {
	name wd_645_224;
	file "../wd_files/wd_224.csv";
};
object player {
	name wd_645_225;
	file "../wd_files/wd_225.csv";
};
object player {
	name wd_645_226;
	file "../wd_files/wd_226.csv";
};
object player {
	name wd_645_227;
	file "../wd_files/wd_227.csv";
};
object player {
	name wd_645_228;
	file "../wd_files/wd_228.csv";
};
object player {
	name wd_645_229;
	file "../wd_files/wd_229.csv";
};
object player {
	name wd_645_230;
	file "../wd_files/wd_230.csv";
};
object player {
	name wd_645_231;
	file "../wd_files/wd_231.csv";
};
object player {
	name wd_645_232;
	file "../wd_files/wd_232.csv";
};
object player {
	name wd_645_233;
	file "../wd_files/wd_233.csv";
};
object player {
	name wd_645_234;
	file "../wd_files/wd_234.csv";
};
object player {
	name wd_645_235;
	file "../wd_files/wd_235.csv";
};
object player {
	name wd_645_236;
	file "../wd_files/wd_236.csv";
};
object player {
	name wd_645_237;
	file "../wd_files/wd_237.csv";
};
object player {
	name wd_645_238;
	file "../wd_files/wd_238.csv";
};
object player {
	name wd_645_239;
	file "../wd_files/wd_239.csv";
};
object player {
	name wd_645_240;
	file "../wd_files/wd_240.csv";
};
object player {
	name wd_633_241;
	file "../wd_files/wd_241.csv";
};
object player {
	name wd_633_242;
	file "../wd_files/wd_242.csv";
};
object player {
	name wd_633_243;
	file "../wd_files/wd_243.csv";
};
object player {
	name wd_633_244;
	file "../wd_files/wd_244.csv";
};
object player {
	name wd_633_245;
	file "../wd_files/wd_245.csv";
};
object player {
	name wd_633_246;
	file "../wd_files/wd_246.csv";
};
object player {
	name wd_633_247;
	file "../wd_files/wd_247.csv";
};
object player {
	name wd_633_248;
	file "../wd_files/wd_248.csv";
};
object player {
	name wd_633_249;
	file "../wd_files/wd_249.csv";
};
object player {
	name wd_633_250;
	file "../wd_files/wd_250.csv";
};
object player {
	name wd_633_251;
	file "../wd_files/wd_251.csv";
};
object player {
	name wd_633_252;
	file "../wd_files/wd_252.csv";
};
object player {
	name wd_633_253;
	file "../wd_files/wd_253.csv";
};
object player {
	name wd_633_254;
	file "../wd_files/wd_254.csv";
};
object player {
	name wd_633_255;
	file "../wd_files/wd_255.csv";
};
object player {
	name wd_633_256;
	file "../wd_files/wd_256.csv";
};
object player {
	name wd_633_257;
	file "../wd_files/wd_257.csv";
};
object player {
	name wd_633_258;
	file "../wd_files/wd_258.csv";
};
object player {
	name wd_633_259;
	file "../wd_files/wd_259.csv";
};
object player {
	name wd_633_260;
	file "../wd_files/wd_260.csv";
};
object player {
	name wd_633_261;
	file "../wd_files/wd_261.csv";
};
object player {
	name wd_633_262;
	file "../wd_files/wd_262.csv";
};
object player {
	name wd_633_263;
	file "../wd_files/wd_263.csv";
};
object player {
	name wd_633_264;
	file "../wd_files/wd_264.csv";
};
object player {
	name wd_633_265;
	file "../wd_files/wd_265.csv";
};
object player {
	name wd_633_266;
	file "../wd_files/wd_266.csv";
};
object player {
	name wd_633_267;
	file "../wd_files/wd_267.csv";
};
object player {
	name wd_633_268;
	file "../wd_files/wd_268.csv";
};
object player {
	name wd_633_269;
	file "../wd_files/wd_269.csv";
};
object player {
	name wd_633_270;
	file "../wd_files/wd_270.csv";
};
object player {
	name wd_633_271;
	file "../wd_files/wd_271.csv";
};
object player {
	name wd_633_272;
	file "../wd_files/wd_272.csv";
};
object player {
	name wd_633_273;
	file "../wd_files/wd_273.csv";
};
object player {
	name wd_633_274;
	file "../wd_files/wd_274.csv";
};
object player {
	name wd_633_275;
	file "../wd_files/wd_275.csv";
};
object player {
	name wd_633_276;
	file "../wd_files/wd_276.csv";
};
object player {
	name wd_633_277;
	file "../wd_files/wd_277.csv";
};
object player {
	name wd_633_278;
	file "../wd_files/wd_278.csv";
};
object player {
	name wd_633_279;
	file "../wd_files/wd_279.csv";
};
object player {
	name wd_633_280;
	file "../wd_files/wd_280.csv";
};
object player {
	name wd_633_281;
	file "../wd_files/wd_281.csv";
};
object player {
	name wd_633_282;
	file "../wd_files/wd_282.csv";
};
object player {
	name wd_633_283;
	file "../wd_files/wd_283.csv";
};
object player {
	name wd_633_284;
	file "../wd_files/wd_284.csv";
};
object player {
	name wd_633_285;
	file "../wd_files/wd_285.csv";
};
object player {
	name wd_633_286;
	file "../wd_files/wd_286.csv";
};
object player {
	name wd_633_287;
	file "../wd_files/wd_287.csv";
};
object player {
	name wd_633_288;
	file "../wd_files/wd_288.csv";
};
object player {
	name wd_633_289;
	file "../wd_files/wd_289.csv";
};
object player {
	name wd_633_290;
	file "../wd_files/wd_290.csv";
};
object player {
	name wd_633_291;
	file "../wd_files/wd_291.csv";
};
object player {
	name wd_633_292;
	file "../wd_files/wd_292.csv";
};
object player {
	name wd_633_293;
	file "../wd_files/wd_293.csv";
};
object player {
	name wd_633_294;
	file "../wd_files/wd_294.csv";
};
object player {
	name wd_633_295;
	file "../wd_files/wd_295.csv";
};
object player {
	name wd_633_296;
	file "../wd_files/wd_296.csv";
};
object player {
	name wd_633_297;
	file "../wd_files/wd_297.csv";
};
object player {
	name wd_633_298;
	file "../wd_files/wd_298.csv";
};
object player {
	name wd_633_299;
	file "../wd_files/wd_299.csv";
};
object player {
	name wd_633_300;
	file "../wd_files/wd_300.csv";
};
object player {
	name wd_633_301;
	file "../wd_files/wd_301.csv";
};
object player {
	name wd_633_302;
	file "../wd_files/wd_302.csv";
};
object player {
	name wd_633_303;
	file "../wd_files/wd_303.csv";
};
object player {
	name wd_633_304;
	file "../wd_files/wd_304.csv";
};
object player {
	name wd_633_305;
	file "../wd_files/wd_305.csv";
};
object player {
	name wd_633_306;
	file "../wd_files/wd_306.csv";
};
object player {
	name wd_633_307;
	file "../wd_files/wd_307.csv";
};
object player {
	name wd_633_308;
	file "../wd_files/wd_308.csv";
};
object player {
	name wd_633_309;
	file "../wd_files/wd_309.csv";
};
object player {
	name wd_633_310;
	file "../wd_files/wd_310.csv";
};
object player {
	name wd_633_311;
	file "../wd_files/wd_311.csv";
};
object player {
	name wd_633_312;
	file "../wd_files/wd_312.csv";
};
object player {
	name wd_633_313;
	file "../wd_files/wd_313.csv";
};
object player {
	name wd_633_314;
	file "../wd_files/wd_314.csv";
};
object player {
	name wd_633_315;
	file "../wd_files/wd_315.csv";
};
object player {
	name wd_633_316;
	file "../wd_files/wd_316.csv";
};
object player {
	name wd_633_317;
	file "../wd_files/wd_317.csv";
};
object player {
	name wd_633_318;
	file "../wd_files/wd_318.csv";
};
object player {
	name wd_633_319;
	file "../wd_files/wd_319.csv";
};
object player {
	name wd_633_320;
	file "../wd_files/wd_320.csv";
};
object player {
	name wd_633_321;
	file "../wd_files/wd_321.csv";
};
object player {
	name wd_633_322;
	file "../wd_files/wd_322.csv";
};
object player {
	name wd_633_323;
	file "../wd_files/wd_323.csv";
};
object player {
	name wd_633_324;
	file "../wd_files/wd_324.csv";
};
object player {
	name wd_633_325;
	file "../wd_files/wd_325.csv";
};
object player {
	name wd_633_326;
	file "../wd_files/wd_326.csv";
};
object player {
	name wd_633_327;
	file "../wd_files/wd_327.csv";
};
object player {
	name wd_633_328;
	file "../wd_files/wd_328.csv";
};
object player {
	name wd_633_329;
	file "../wd_files/wd_329.csv";
};
object player {
	name wd_633_330;
	file "../wd_files/wd_330.csv";
};
object player {
	name wd_633_331;
	file "../wd_files/wd_331.csv";
};
object player {
	name wd_633_332;
	file "../wd_files/wd_332.csv";
};
object player {
	name wd_633_333;
	file "../wd_files/wd_333.csv";
};
object player {
	name wd_633_334;
	file "../wd_files/wd_334.csv";
};
object player {
	name wd_633_335;
	file "../wd_files/wd_335.csv";
};
object player {
	name wd_633_336;
	file "../wd_files/wd_336.csv";
};
object player {
	name wd_633_337;
	file "../wd_files/wd_337.csv";
};
object player {
	name wd_633_338;
	file "../wd_files/wd_338.csv";
};
object player {
	name wd_633_339;
	file "../wd_files/wd_339.csv";
};
object player {
	name wd_633_340;
	file "../wd_files/wd_340.csv";
};
object player {
	name wd_633_341;
	file "../wd_files/wd_341.csv";
};
object player {
	name wd_633_342;
	file "../wd_files/wd_342.csv";
};
object player {
	name wd_633_343;
	file "../wd_files/wd_343.csv";
};
object player {
	name wd_633_344;
	file "../wd_files/wd_344.csv";
};
object player {
	name wd_633_345;
	file "../wd_files/wd_345.csv";
};
object player {
	name wd_633_346;
	file "../wd_files/wd_346.csv";
};
object player {
	name wd_633_347;
	file "../wd_files/wd_347.csv";
};
object player {
	name wd_633_348;
	file "../wd_files/wd_348.csv";
};
object player {
	name wd_633_349;
	file "../wd_files/wd_349.csv";
};
object player {
	name wd_633_350;
	file "../wd_files/wd_350.csv";
};
object player {
	name wd_633_351;
	file "../wd_files/wd_351.csv";
};
object player {
	name wd_633_352;
	file "../wd_files/wd_352.csv";
};
object player {
	name wd_633_353;
	file "../wd_files/wd_353.csv";
};
object player {
	name wd_633_354;
	file "../wd_files/wd_354.csv";
};
object player {
	name wd_633_355;
	file "../wd_files/wd_355.csv";
};
object player {
	name wd_633_356;
	file "../wd_files/wd_356.csv";
};
object player {
	name wd_633_357;
	file "../wd_files/wd_357.csv";
};
object player {
	name wd_633_358;
	file "../wd_files/wd_358.csv";
};
object player {
	name wd_633_359;
	file "../wd_files/wd_359.csv";
};
object player {
	name wd_633_360;
	file "../wd_files/wd_360.csv";
};
object player {
	name wd_632_361;
	file "../wd_files/wd_361.csv";
};
object player {
	name wd_632_362;
	file "../wd_files/wd_362.csv";
};
object player {
	name wd_632_363;
	file "../wd_files/wd_363.csv";
};
object player {
	name wd_632_364;
	file "../wd_files/wd_364.csv";
};
object player {
	name wd_632_365;
	file "../wd_files/wd_365.csv";
};
object player {
	name wd_632_366;
	file "../wd_files/wd_366.csv";
};
object player {
	name wd_632_367;
	file "../wd_files/wd_367.csv";
};
object player {
	name wd_632_368;
	file "../wd_files/wd_368.csv";
};
object player {
	name wd_632_369;
	file "../wd_files/wd_369.csv";
};
object player {
	name wd_632_370;
	file "../wd_files/wd_370.csv";
};
object player {
	name wd_632_371;
	file "../wd_files/wd_371.csv";
};
object player {
	name wd_632_372;
	file "../wd_files/wd_372.csv";
};
object player {
	name wd_632_373;
	file "../wd_files/wd_373.csv";
};
object player {
	name wd_632_374;
	file "../wd_files/wd_374.csv";
};
object player {
	name wd_632_375;
	file "../wd_files/wd_375.csv";
};
object player {
	name wd_632_376;
	file "../wd_files/wd_376.csv";
};
object player {
	name wd_632_377;
	file "../wd_files/wd_377.csv";
};
object player {
	name wd_632_378;
	file "../wd_files/wd_378.csv";
};
object player {
	name wd_632_379;
	file "../wd_files/wd_379.csv";
};
object player {
	name wd_632_380;
	file "../wd_files/wd_380.csv";
};
object player {
	name wd_632_381;
	file "../wd_files/wd_381.csv";
};
object player {
	name wd_632_382;
	file "../wd_files/wd_382.csv";
};
object player {
	name wd_632_383;
	file "../wd_files/wd_383.csv";
};
object player {
	name wd_632_384;
	file "../wd_files/wd_384.csv";
};
object player {
	name wd_632_385;
	file "../wd_files/wd_385.csv";
};
object player {
	name wd_632_386;
	file "../wd_files/wd_386.csv";
};
object player {
	name wd_632_387;
	file "../wd_files/wd_387.csv";
};
object player {
	name wd_632_388;
	file "../wd_files/wd_388.csv";
};
object player {
	name wd_632_389;
	file "../wd_files/wd_389.csv";
};
object player {
	name wd_632_390;
	file "../wd_files/wd_390.csv";
};
object player {
	name wd_632_391;
	file "../wd_files/wd_391.csv";
};
object player {
	name wd_632_392;
	file "../wd_files/wd_392.csv";
};
object player {
	name wd_632_393;
	file "../wd_files/wd_393.csv";
};
object player {
	name wd_632_394;
	file "../wd_files/wd_394.csv";
};
object player {
	name wd_632_395;
	file "../wd_files/wd_395.csv";
};
object player {
	name wd_632_396;
	file "../wd_files/wd_396.csv";
};
object player {
	name wd_632_397;
	file "../wd_files/wd_397.csv";
};
object player {
	name wd_632_398;
	file "../wd_files/wd_398.csv";
};
object player {
	name wd_632_399;
	file "../wd_files/wd_399.csv";
};
object player {
	name wd_632_400;
	file "../wd_files/wd_400.csv";
};
object player {
	name wd_632_401;
	file "../wd_files/wd_401.csv";
};
object player {
	name wd_632_402;
	file "../wd_files/wd_402.csv";
};
object player {
	name wd_632_403;
	file "../wd_files/wd_403.csv";
};
object player {
	name wd_632_404;
	file "../wd_files/wd_404.csv";
};
object player {
	name wd_632_405;
	file "../wd_files/wd_405.csv";
};
object player {
	name wd_632_406;
	file "../wd_files/wd_406.csv";
};
object player {
	name wd_632_407;
	file "../wd_files/wd_407.csv";
};
object player {
	name wd_632_408;
	file "../wd_files/wd_408.csv";
};
object player {
	name wd_632_409;
	file "../wd_files/wd_409.csv";
};
object player {
	name wd_632_410;
	file "../wd_files/wd_410.csv";
};
object player {
	name wd_632_411;
	file "../wd_files/wd_411.csv";
};
object player {
	name wd_632_412;
	file "../wd_files/wd_412.csv";
};
object player {
	name wd_632_413;
	file "../wd_files/wd_413.csv";
};
object player {
	name wd_632_414;
	file "../wd_files/wd_414.csv";
};
object player {
	name wd_632_415;
	file "../wd_files/wd_415.csv";
};
object player {
	name wd_632_416;
	file "../wd_files/wd_416.csv";
};
object player {
	name wd_632_417;
	file "../wd_files/wd_417.csv";
};
object player {
	name wd_632_418;
	file "../wd_files/wd_418.csv";
};
object player {
	name wd_632_419;
	file "../wd_files/wd_419.csv";
};
object player {
	name wd_632_420;
	file "../wd_files/wd_420.csv";
};
object player {
	name wd_632_421;
	file "../wd_files/wd_421.csv";
};
object player {
	name wd_632_422;
	file "../wd_files/wd_422.csv";
};
object player {
	name wd_632_423;
	file "../wd_files/wd_423.csv";
};
object player {
	name wd_632_424;
	file "../wd_files/wd_424.csv";
};
object player {
	name wd_632_425;
	file "../wd_files/wd_425.csv";
};
object player {
	name wd_632_426;
	file "../wd_files/wd_426.csv";
};
object player {
	name wd_632_427;
	file "../wd_files/wd_427.csv";
};
object player {
	name wd_632_428;
	file "../wd_files/wd_428.csv";
};
object player {
	name wd_632_429;
	file "../wd_files/wd_429.csv";
};
object player {
	name wd_632_430;
	file "../wd_files/wd_430.csv";
};
object player {
	name wd_632_431;
	file "../wd_files/wd_431.csv";
};
object player {
	name wd_632_432;
	file "../wd_files/wd_432.csv";
};
object player {
	name wd_632_433;
	file "../wd_files/wd_433.csv";
};
object player {
	name wd_632_434;
	file "../wd_files/wd_434.csv";
};
object player {
	name wd_632_435;
	file "../wd_files/wd_435.csv";
};
object player {
	name wd_632_436;
	file "../wd_files/wd_436.csv";
};
object player {
	name wd_632_437;
	file "../wd_files/wd_437.csv";
};
object player {
	name wd_632_438;
	file "../wd_files/wd_438.csv";
};
object player {
	name wd_632_439;
	file "../wd_files/wd_439.csv";
};
object player {
	name wd_632_440;
	file "../wd_files/wd_440.csv";
};
object player {
	name wd_632_441;
	file "../wd_files/wd_441.csv";
};
object player {
	name wd_632_442;
	file "../wd_files/wd_442.csv";
};
object player {
	name wd_632_443;
	file "../wd_files/wd_443.csv";
};
object player {
	name wd_632_444;
	file "../wd_files/wd_444.csv";
};
object player {
	name wd_632_445;
	file "../wd_files/wd_445.csv";
};
object player {
	name wd_632_446;
	file "../wd_files/wd_446.csv";
};
object player {
	name wd_632_447;
	file "../wd_files/wd_447.csv";
};
object player {
	name wd_632_448;
	file "../wd_files/wd_448.csv";
};
object player {
	name wd_632_449;
	file "../wd_files/wd_449.csv";
};
object player {
	name wd_632_450;
	file "../wd_files/wd_450.csv";
};
object player {
	name wd_632_451;
	file "../wd_files/wd_451.csv";
};
object player {
	name wd_632_452;
	file "../wd_files/wd_452.csv";
};
object player {
	name wd_632_453;
	file "../wd_files/wd_453.csv";
};
object player {
	name wd_632_454;
	file "../wd_files/wd_454.csv";
};
object player {
	name wd_632_455;
	file "../wd_files/wd_455.csv";
};
object player {
	name wd_632_456;
	file "../wd_files/wd_456.csv";
};
object player {
	name wd_632_457;
	file "../wd_files/wd_457.csv";
};
object player {
	name wd_632_458;
	file "../wd_files/wd_458.csv";
};
object player {
	name wd_632_459;
	file "../wd_files/wd_459.csv";
};
object player {
	name wd_632_460;
	file "../wd_files/wd_460.csv";
};
object player {
	name wd_632_461;
	file "../wd_files/wd_461.csv";
};
object player {
	name wd_632_462;
	file "../wd_files/wd_462.csv";
};
object player {
	name wd_632_463;
	file "../wd_files/wd_463.csv";
};
object player {
	name wd_632_464;
	file "../wd_files/wd_464.csv";
};
object player {
	name wd_632_465;
	file "../wd_files/wd_465.csv";
};
object player {
	name wd_632_466;
	file "../wd_files/wd_466.csv";
};
object player {
	name wd_632_467;
	file "../wd_files/wd_467.csv";
};
object player {
	name wd_632_468;
	file "../wd_files/wd_468.csv";
};
object player {
	name wd_632_469;
	file "../wd_files/wd_469.csv";
};
object player {
	name wd_632_470;
	file "../wd_files/wd_470.csv";
};
object player {
	name wd_632_471;
	file "../wd_files/wd_471.csv";
};
object player {
	name wd_632_472;
	file "../wd_files/wd_472.csv";
};
object player {
	name wd_632_473;
	file "../wd_files/wd_473.csv";
};
object player {
	name wd_632_474;
	file "../wd_files/wd_474.csv";
};
object player {
	name wd_632_475;
	file "../wd_files/wd_475.csv";
};
object player {
	name wd_632_476;
	file "../wd_files/wd_476.csv";
};
object player {
	name wd_632_477;
	file "../wd_files/wd_477.csv";
};
object player {
	name wd_632_478;
	file "../wd_files/wd_478.csv";
};
object player {
	name wd_632_479;
	file "../wd_files/wd_479.csv";
};
object player {
	name wd_632_480;
	file "../wd_files/wd_480.csv";
};
object player {
	name wd_692_481;
	file "../wd_files/wd_481.csv";
};
object player {
	name wd_692_482;
	file "../wd_files/wd_482.csv";
};
object player {
	name wd_692_483;
	file "../wd_files/wd_483.csv";
};
object player {
	name wd_692_484;
	file "../wd_files/wd_484.csv";
};
object player {
	name wd_692_485;
	file "../wd_files/wd_485.csv";
};
object player {
	name wd_692_486;
	file "../wd_files/wd_486.csv";
};
object player {
	name wd_692_487;
	file "../wd_files/wd_487.csv";
};
object player {
	name wd_692_488;
	file "../wd_files/wd_488.csv";
};
object player {
	name wd_692_489;
	file "../wd_files/wd_489.csv";
};
object player {
	name wd_692_490;
	file "../wd_files/wd_490.csv";
};
object player {
	name wd_692_491;
	file "../wd_files/wd_491.csv";
};
object player {
	name wd_692_492;
	file "../wd_files/wd_492.csv";
};
object player {
	name wd_692_493;
	file "../wd_files/wd_493.csv";
};
object player {
	name wd_692_494;
	file "../wd_files/wd_494.csv";
};
object player {
	name wd_692_495;
	file "../wd_files/wd_495.csv";
};
object player {
	name wd_692_496;
	file "../wd_files/wd_496.csv";
};
object player {
	name wd_692_497;
	file "../wd_files/wd_497.csv";
};
object player {
	name wd_692_498;
	file "../wd_files/wd_498.csv";
};
object player {
	name wd_692_499;
	file "../wd_files/wd_499.csv";
};
object player {
	name wd_692_500;
	file "../wd_files/wd_500.csv";
};
object player {
	name wd_692_501;
	file "../wd_files/wd_501.csv";
};
object player {
	name wd_692_502;
	file "../wd_files/wd_502.csv";
};
object player {
	name wd_692_503;
	file "../wd_files/wd_503.csv";
};
object player {
	name wd_692_504;
	file "../wd_files/wd_504.csv";
};
object player {
	name wd_692_505;
	file "../wd_files/wd_505.csv";
};
object player {
	name wd_692_506;
	file "../wd_files/wd_506.csv";
};
object player {
	name wd_692_507;
	file "../wd_files/wd_507.csv";
};
object player {
	name wd_692_508;
	file "../wd_files/wd_508.csv";
};
object player {
	name wd_692_509;
	file "../wd_files/wd_509.csv";
};
object player {
	name wd_692_510;
	file "../wd_files/wd_510.csv";
};
object player {
	name wd_692_511;
	file "../wd_files/wd_511.csv";
};
object player {
	name wd_692_512;
	file "../wd_files/wd_512.csv";
};
object player {
	name wd_692_513;
	file "../wd_files/wd_513.csv";
};
object player {
	name wd_692_514;
	file "../wd_files/wd_514.csv";
};
object player {
	name wd_692_515;
	file "../wd_files/wd_515.csv";
};
object player {
	name wd_692_516;
	file "../wd_files/wd_516.csv";
};
object player {
	name wd_692_517;
	file "../wd_files/wd_517.csv";
};
object player {
	name wd_692_518;
	file "../wd_files/wd_518.csv";
};
object player {
	name wd_692_519;
	file "../wd_files/wd_519.csv";
};
object player {
	name wd_692_520;
	file "../wd_files/wd_520.csv";
};
object player {
	name wd_692_521;
	file "../wd_files/wd_521.csv";
};
object player {
	name wd_692_522;
	file "../wd_files/wd_522.csv";
};
object player {
	name wd_692_523;
	file "../wd_files/wd_523.csv";
};
object player {
	name wd_692_524;
	file "../wd_files/wd_524.csv";
};
object player {
	name wd_692_525;
	file "../wd_files/wd_525.csv";
};
object player {
	name wd_692_526;
	file "../wd_files/wd_526.csv";
};
object player {
	name wd_692_527;
	file "../wd_files/wd_527.csv";
};
object player {
	name wd_692_528;
	file "../wd_files/wd_528.csv";
};
object player {
	name wd_692_529;
	file "../wd_files/wd_529.csv";
};
object player {
	name wd_692_530;
	file "../wd_files/wd_530.csv";
};
object player {
	name wd_692_531;
	file "../wd_files/wd_531.csv";
};
object player {
	name wd_692_532;
	file "../wd_files/wd_532.csv";
};
object player {
	name wd_692_533;
	file "../wd_files/wd_533.csv";
};
object player {
	name wd_692_534;
	file "../wd_files/wd_534.csv";
};
object player {
	name wd_692_535;
	file "../wd_files/wd_535.csv";
};
object player {
	name wd_692_536;
	file "../wd_files/wd_536.csv";
};
object player {
	name wd_692_537;
	file "../wd_files/wd_537.csv";
};
object player {
	name wd_692_538;
	file "../wd_files/wd_538.csv";
};
object player {
	name wd_692_539;
	file "../wd_files/wd_539.csv";
};
object player {
	name wd_692_540;
	file "../wd_files/wd_540.csv";
};
object player {
	name wd_692_541;
	file "../wd_files/wd_541.csv";
};
object player {
	name wd_692_542;
	file "../wd_files/wd_542.csv";
};
object player {
	name wd_692_543;
	file "../wd_files/wd_543.csv";
};
object player {
	name wd_692_544;
	file "../wd_files/wd_544.csv";
};
object player {
	name wd_692_545;
	file "../wd_files/wd_545.csv";
};
object player {
	name wd_692_546;
	file "../wd_files/wd_546.csv";
};
object player {
	name wd_692_547;
	file "../wd_files/wd_547.csv";
};
object player {
	name wd_692_548;
	file "../wd_files/wd_548.csv";
};
object player {
	name wd_692_549;
	file "../wd_files/wd_549.csv";
};
object player {
	name wd_692_550;
	file "../wd_files/wd_550.csv";
};
object player {
	name wd_692_551;
	file "../wd_files/wd_551.csv";
};
object player {
	name wd_692_552;
	file "../wd_files/wd_552.csv";
};
object player {
	name wd_692_553;
	file "../wd_files/wd_553.csv";
};
object player {
	name wd_692_554;
	file "../wd_files/wd_554.csv";
};
object player {
	name wd_692_555;
	file "../wd_files/wd_555.csv";
};
object player {
	name wd_692_556;
	file "../wd_files/wd_556.csv";
};
object player {
	name wd_692_557;
	file "../wd_files/wd_557.csv";
};
object player {
	name wd_692_558;
	file "../wd_files/wd_558.csv";
};
object player {
	name wd_692_559;
	file "../wd_files/wd_559.csv";
};
object player {
	name wd_692_560;
	file "../wd_files/wd_560.csv";
};
object player {
	name wd_692_561;
	file "../wd_files/wd_561.csv";
};
object player {
	name wd_692_562;
	file "../wd_files/wd_562.csv";
};
object player {
	name wd_692_563;
	file "../wd_files/wd_563.csv";
};
object player {
	name wd_692_564;
	file "../wd_files/wd_564.csv";
};
object player {
	name wd_692_565;
	file "../wd_files/wd_565.csv";
};
object player {
	name wd_692_566;
	file "../wd_files/wd_566.csv";
};
object player {
	name wd_692_567;
	file "../wd_files/wd_567.csv";
};
object player {
	name wd_692_568;
	file "../wd_files/wd_568.csv";
};
object player {
	name wd_692_569;
	file "../wd_files/wd_569.csv";
};
object player {
	name wd_692_570;
	file "../wd_files/wd_570.csv";
};
object player {
	name wd_692_571;
	file "../wd_files/wd_571.csv";
};
object player {
	name wd_692_572;
	file "../wd_files/wd_572.csv";
};
object player {
	name wd_692_573;
	file "../wd_files/wd_573.csv";
};
object player {
	name wd_692_574;
	file "../wd_files/wd_574.csv";
};
object player {
	name wd_692_575;
	file "../wd_files/wd_575.csv";
};
object player {
	name wd_692_576;
	file "../wd_files/wd_576.csv";
};
object player {
	name wd_692_577;
	file "../wd_files/wd_577.csv";
};
object player {
	name wd_692_578;
	file "../wd_files/wd_578.csv";
};
object player {
	name wd_692_579;
	file "../wd_files/wd_579.csv";
};
object player {
	name wd_692_580;
	file "../wd_files/wd_580.csv";
};
object player {
	name wd_692_581;
	file "../wd_files/wd_581.csv";
};
object player {
	name wd_692_582;
	file "../wd_files/wd_582.csv";
};
object player {
	name wd_692_583;
	file "../wd_files/wd_583.csv";
};
object player {
	name wd_692_584;
	file "../wd_files/wd_584.csv";
};
object player {
	name wd_692_585;
	file "../wd_files/wd_585.csv";
};
object player {
	name wd_692_586;
	file "../wd_files/wd_586.csv";
};
object player {
	name wd_692_587;
	file "../wd_files/wd_587.csv";
};
object player {
	name wd_692_588;
	file "../wd_files/wd_588.csv";
};
object player {
	name wd_692_589;
	file "../wd_files/wd_589.csv";
};
object player {
	name wd_692_590;
	file "../wd_files/wd_590.csv";
};
object player {
	name wd_692_591;
	file "../wd_files/wd_591.csv";
};
object player {
	name wd_692_592;
	file "../wd_files/wd_592.csv";
};
object player {
	name wd_692_593;
	file "../wd_files/wd_593.csv";
};
object player {
	name wd_692_594;
	file "../wd_files/wd_594.csv";
};
object player {
	name wd_692_595;
	file "../wd_files/wd_595.csv";
};
object player {
	name wd_692_596;
	file "../wd_files/wd_596.csv";
};
object player {
	name wd_692_597;
	file "../wd_files/wd_597.csv";
};
object player {
	name wd_692_598;
	file "../wd_files/wd_598.csv";
};
object player {
	name wd_692_599;
	file "../wd_files/wd_599.csv";
};
object player {
	name wd_692_600;
	file "../wd_files/wd_600.csv";
};
object player {
	name wd_675_601;
	file "../wd_files/wd_601.csv";
};
object player {
	name wd_675_602;
	file "../wd_files/wd_602.csv";
};
object player {
	name wd_675_603;
	file "../wd_files/wd_603.csv";
};
object player {
	name wd_675_604;
	file "../wd_files/wd_604.csv";
};
object player {
	name wd_675_605;
	file "../wd_files/wd_605.csv";
};
object player {
	name wd_675_606;
	file "../wd_files/wd_606.csv";
};
object player {
	name wd_675_607;
	file "../wd_files/wd_607.csv";
};
object player {
	name wd_675_608;
	file "../wd_files/wd_608.csv";
};
object player {
	name wd_675_609;
	file "../wd_files/wd_609.csv";
};
object player {
	name wd_675_610;
	file "../wd_files/wd_610.csv";
};
object player {
	name wd_675_611;
	file "../wd_files/wd_611.csv";
};
object player {
	name wd_675_612;
	file "../wd_files/wd_612.csv";
};
object player {
	name wd_675_613;
	file "../wd_files/wd_613.csv";
};
object player {
	name wd_675_614;
	file "../wd_files/wd_614.csv";
};
object player {
	name wd_675_615;
	file "../wd_files/wd_615.csv";
};
object player {
	name wd_675_616;
	file "../wd_files/wd_616.csv";
};
object player {
	name wd_675_617;
	file "../wd_files/wd_617.csv";
};
object player {
	name wd_675_618;
	file "../wd_files/wd_618.csv";
};
object player {
	name wd_675_619;
	file "../wd_files/wd_619.csv";
};
object player {
	name wd_675_620;
	file "../wd_files/wd_620.csv";
};
object player {
	name wd_675_621;
	file "../wd_files/wd_621.csv";
};
object player {
	name wd_675_622;
	file "../wd_files/wd_622.csv";
};
object player {
	name wd_675_623;
	file "../wd_files/wd_623.csv";
};
object player {
	name wd_675_624;
	file "../wd_files/wd_624.csv";
};
object player {
	name wd_675_625;
	file "../wd_files/wd_625.csv";
};
object player {
	name wd_675_626;
	file "../wd_files/wd_626.csv";
};
object player {
	name wd_675_627;
	file "../wd_files/wd_627.csv";
};
object player {
	name wd_675_628;
	file "../wd_files/wd_628.csv";
};
object player {
	name wd_675_629;
	file "../wd_files/wd_629.csv";
};
object player {
	name wd_675_630;
	file "../wd_files/wd_630.csv";
};
object player {
	name wd_675_631;
	file "../wd_files/wd_631.csv";
};
object player {
	name wd_675_632;
	file "../wd_files/wd_632.csv";
};
object player {
	name wd_675_633;
	file "../wd_files/wd_633.csv";
};
object player {
	name wd_675_634;
	file "../wd_files/wd_634.csv";
};
object player {
	name wd_675_635;
	file "../wd_files/wd_635.csv";
};
object player {
	name wd_675_636;
	file "../wd_files/wd_636.csv";
};
object player {
	name wd_675_637;
	file "../wd_files/wd_637.csv";
};
object player {
	name wd_675_638;
	file "../wd_files/wd_638.csv";
};
object player {
	name wd_675_639;
	file "../wd_files/wd_639.csv";
};
object player {
	name wd_675_640;
	file "../wd_files/wd_640.csv";
};
object player {
	name wd_675_641;
	file "../wd_files/wd_641.csv";
};
object player {
	name wd_675_642;
	file "../wd_files/wd_642.csv";
};
object player {
	name wd_675_643;
	file "../wd_files/wd_643.csv";
};
object player {
	name wd_675_644;
	file "../wd_files/wd_644.csv";
};
object player {
	name wd_675_645;
	file "../wd_files/wd_645.csv";
};
object player {
	name wd_675_646;
	file "../wd_files/wd_646.csv";
};
object player {
	name wd_675_647;
	file "../wd_files/wd_647.csv";
};
object player {
	name wd_675_648;
	file "../wd_files/wd_648.csv";
};
object player {
	name wd_675_649;
	file "../wd_files/wd_649.csv";
};
object player {
	name wd_675_650;
	file "../wd_files/wd_650.csv";
};
object player {
	name wd_675_651;
	file "../wd_files/wd_651.csv";
};
object player {
	name wd_675_652;
	file "../wd_files/wd_652.csv";
};
object player {
	name wd_675_653;
	file "../wd_files/wd_653.csv";
};
object player {
	name wd_675_654;
	file "../wd_files/wd_654.csv";
};
object player {
	name wd_675_655;
	file "../wd_files/wd_655.csv";
};
object player {
	name wd_675_656;
	file "../wd_files/wd_656.csv";
};
object player {
	name wd_675_657;
	file "../wd_files/wd_657.csv";
};
object player {
	name wd_675_658;
	file "../wd_files/wd_658.csv";
};
object player {
	name wd_675_659;
	file "../wd_files/wd_659.csv";
};
object player {
	name wd_675_660;
	file "../wd_files/wd_660.csv";
};
object player {
	name wd_675_661;
	file "../wd_files/wd_661.csv";
};
object player {
	name wd_675_662;
	file "../wd_files/wd_662.csv";
};
object player {
	name wd_675_663;
	file "../wd_files/wd_663.csv";
};
object player {
	name wd_675_664;
	file "../wd_files/wd_664.csv";
};
object player {
	name wd_675_665;
	file "../wd_files/wd_665.csv";
};
object player {
	name wd_675_666;
	file "../wd_files/wd_666.csv";
};
object player {
	name wd_675_667;
	file "../wd_files/wd_667.csv";
};
object player {
	name wd_675_668;
	file "../wd_files/wd_668.csv";
};
object player {
	name wd_675_669;
	file "../wd_files/wd_669.csv";
};
object player {
	name wd_675_670;
	file "../wd_files/wd_670.csv";
};
object player {
	name wd_675_671;
	file "../wd_files/wd_671.csv";
};
object player {
	name wd_675_672;
	file "../wd_files/wd_672.csv";
};
object player {
	name wd_675_673;
	file "../wd_files/wd_673.csv";
};
object player {
	name wd_675_674;
	file "../wd_files/wd_674.csv";
};
object player {
	name wd_675_675;
	file "../wd_files/wd_675.csv";
};
object player {
	name wd_675_676;
	file "../wd_files/wd_676.csv";
};
object player {
	name wd_675_677;
	file "../wd_files/wd_677.csv";
};
object player {
	name wd_675_678;
	file "../wd_files/wd_678.csv";
};
object player {
	name wd_675_679;
	file "../wd_files/wd_679.csv";
};
object player {
	name wd_675_680;
	file "../wd_files/wd_680.csv";
};
object player {
	name wd_675_681;
	file "../wd_files/wd_681.csv";
};
object player {
	name wd_675_682;
	file "../wd_files/wd_682.csv";
};
object player {
	name wd_675_683;
	file "../wd_files/wd_683.csv";
};
object player {
	name wd_675_684;
	file "../wd_files/wd_684.csv";
};
object player {
	name wd_675_685;
	file "../wd_files/wd_685.csv";
};
object player {
	name wd_675_686;
	file "../wd_files/wd_686.csv";
};
object player {
	name wd_675_687;
	file "../wd_files/wd_687.csv";
};
object player {
	name wd_675_688;
	file "../wd_files/wd_688.csv";
};
object player {
	name wd_675_689;
	file "../wd_files/wd_689.csv";
};
object player {
	name wd_675_690;
	file "../wd_files/wd_690.csv";
};
object player {
	name wd_675_691;
	file "../wd_files/wd_691.csv";
};
object player {
	name wd_675_692;
	file "../wd_files/wd_692.csv";
};
object player {
	name wd_675_693;
	file "../wd_files/wd_693.csv";
};
object player {
	name wd_675_694;
	file "../wd_files/wd_694.csv";
};
object player {
	name wd_675_695;
	file "../wd_files/wd_695.csv";
};
object player {
	name wd_675_696;
	file "../wd_files/wd_696.csv";
};
object player {
	name wd_675_697;
	file "../wd_files/wd_697.csv";
};
object player {
	name wd_675_698;
	file "../wd_files/wd_698.csv";
};
object player {
	name wd_675_699;
	file "../wd_files/wd_699.csv";
};
object player {
	name wd_675_700;
	file "../wd_files/wd_700.csv";
};
object player {
	name wd_675_701;
	file "../wd_files/wd_701.csv";
};
object player {
	name wd_675_702;
	file "../wd_files/wd_702.csv";
};
object player {
	name wd_675_703;
	file "../wd_files/wd_703.csv";
};
object player {
	name wd_675_704;
	file "../wd_files/wd_704.csv";
};
object player {
	name wd_675_705;
	file "../wd_files/wd_705.csv";
};
object player {
	name wd_675_706;
	file "../wd_files/wd_706.csv";
};
object player {
	name wd_675_707;
	file "../wd_files/wd_707.csv";
};
object player {
	name wd_675_708;
	file "../wd_files/wd_708.csv";
};
object player {
	name wd_675_709;
	file "../wd_files/wd_709.csv";
};
object player {
	name wd_675_710;
	file "../wd_files/wd_710.csv";
};
object player {
	name wd_675_711;
	file "../wd_files/wd_711.csv";
};
object player {
	name wd_675_712;
	file "../wd_files/wd_712.csv";
};
object player {
	name wd_675_713;
	file "../wd_files/wd_713.csv";
};
object player {
	name wd_675_714;
	file "../wd_files/wd_714.csv";
};
object player {
	name wd_675_715;
	file "../wd_files/wd_715.csv";
};
object player {
	name wd_675_716;
	file "../wd_files/wd_716.csv";
};
object player {
	name wd_675_717;
	file "../wd_files/wd_717.csv";
};
object player {
	name wd_675_718;
	file "../wd_files/wd_718.csv";
};
object player {
	name wd_675_719;
	file "../wd_files/wd_719.csv";
};
object player {
	name wd_675_720;
	file "../wd_files/wd_720.csv";
};
object player {
	name wd_671_721;
	file "../wd_files/wd_721.csv";
};
object player {
	name wd_671_722;
	file "../wd_files/wd_722.csv";
};
object player {
	name wd_671_723;
	file "../wd_files/wd_723.csv";
};
object player {
	name wd_671_724;
	file "../wd_files/wd_724.csv";
};
object player {
	name wd_671_725;
	file "../wd_files/wd_725.csv";
};
object player {
	name wd_671_726;
	file "../wd_files/wd_726.csv";
};
object player {
	name wd_671_727;
	file "../wd_files/wd_727.csv";
};
object player {
	name wd_671_728;
	file "../wd_files/wd_728.csv";
};
object player {
	name wd_671_729;
	file "../wd_files/wd_729.csv";
};
object player {
	name wd_671_730;
	file "../wd_files/wd_730.csv";
};
object player {
	name wd_671_731;
	file "../wd_files/wd_731.csv";
};
object player {
	name wd_671_732;
	file "../wd_files/wd_732.csv";
};
object player {
	name wd_671_733;
	file "../wd_files/wd_733.csv";
};
object player {
	name wd_671_734;
	file "../wd_files/wd_734.csv";
};
object player {
	name wd_671_735;
	file "../wd_files/wd_735.csv";
};
object player {
	name wd_671_736;
	file "../wd_files/wd_736.csv";
};
object player {
	name wd_671_737;
	file "../wd_files/wd_737.csv";
};
object player {
	name wd_671_738;
	file "../wd_files/wd_738.csv";
};
object player {
	name wd_671_739;
	file "../wd_files/wd_739.csv";
};
object player {
	name wd_671_740;
	file "../wd_files/wd_740.csv";
};
object player {
	name wd_671_741;
	file "../wd_files/wd_741.csv";
};
object player {
	name wd_671_742;
	file "../wd_files/wd_742.csv";
};
object player {
	name wd_671_743;
	file "../wd_files/wd_743.csv";
};
object player {
	name wd_671_744;
	file "../wd_files/wd_744.csv";
};
object player {
	name wd_671_745;
	file "../wd_files/wd_745.csv";
};
object player {
	name wd_671_746;
	file "../wd_files/wd_746.csv";
};
object player {
	name wd_671_747;
	file "../wd_files/wd_747.csv";
};
object player {
	name wd_671_748;
	file "../wd_files/wd_748.csv";
};
object player {
	name wd_671_749;
	file "../wd_files/wd_749.csv";
};
object player {
	name wd_671_750;
	file "../wd_files/wd_750.csv";
};
object player {
	name wd_671_751;
	file "../wd_files/wd_751.csv";
};
object player {
	name wd_671_752;
	file "../wd_files/wd_752.csv";
};
object player {
	name wd_671_753;
	file "../wd_files/wd_753.csv";
};
object player {
	name wd_671_754;
	file "../wd_files/wd_754.csv";
};
object player {
	name wd_671_755;
	file "../wd_files/wd_755.csv";
};
object player {
	name wd_671_756;
	file "../wd_files/wd_756.csv";
};
object player {
	name wd_671_757;
	file "../wd_files/wd_757.csv";
};
object player {
	name wd_671_758;
	file "../wd_files/wd_758.csv";
};
object player {
	name wd_671_759;
	file "../wd_files/wd_759.csv";
};
object player {
	name wd_671_760;
	file "../wd_files/wd_760.csv";
};
object player {
	name wd_671_761;
	file "../wd_files/wd_761.csv";
};
object player {
	name wd_671_762;
	file "../wd_files/wd_762.csv";
};
object player {
	name wd_671_763;
	file "../wd_files/wd_763.csv";
};
object player {
	name wd_671_764;
	file "../wd_files/wd_764.csv";
};
object player {
	name wd_671_765;
	file "../wd_files/wd_765.csv";
};
object player {
	name wd_671_766;
	file "../wd_files/wd_766.csv";
};
object player {
	name wd_671_767;
	file "../wd_files/wd_767.csv";
};
object player {
	name wd_671_768;
	file "../wd_files/wd_768.csv";
};
object player {
	name wd_671_769;
	file "../wd_files/wd_769.csv";
};
object player {
	name wd_671_770;
	file "../wd_files/wd_770.csv";
};
object player {
	name wd_671_771;
	file "../wd_files/wd_771.csv";
};
object player {
	name wd_671_772;
	file "../wd_files/wd_772.csv";
};
object player {
	name wd_671_773;
	file "../wd_files/wd_773.csv";
};
object player {
	name wd_671_774;
	file "../wd_files/wd_774.csv";
};
object player {
	name wd_671_775;
	file "../wd_files/wd_775.csv";
};
object player {
	name wd_671_776;
	file "../wd_files/wd_776.csv";
};
object player {
	name wd_671_777;
	file "../wd_files/wd_777.csv";
};
object player {
	name wd_671_778;
	file "../wd_files/wd_778.csv";
};
object player {
	name wd_671_779;
	file "../wd_files/wd_779.csv";
};
object player {
	name wd_671_780;
	file "../wd_files/wd_780.csv";
};
object player {
	name wd_671_781;
	file "../wd_files/wd_781.csv";
};
object player {
	name wd_671_782;
	file "../wd_files/wd_782.csv";
};
object player {
	name wd_671_783;
	file "../wd_files/wd_783.csv";
};
object player {
	name wd_671_784;
	file "../wd_files/wd_784.csv";
};
object player {
	name wd_671_785;
	file "../wd_files/wd_785.csv";
};
object player {
	name wd_671_786;
	file "../wd_files/wd_786.csv";
};
object player {
	name wd_671_787;
	file "../wd_files/wd_787.csv";
};
object player {
	name wd_671_788;
	file "../wd_files/wd_788.csv";
};
object player {
	name wd_671_789;
	file "../wd_files/wd_789.csv";
};
object player {
	name wd_671_790;
	file "../wd_files/wd_790.csv";
};
object player {
	name wd_671_791;
	file "../wd_files/wd_791.csv";
};
object player {
	name wd_671_792;
	file "../wd_files/wd_792.csv";
};
object player {
	name wd_671_793;
	file "../wd_files/wd_793.csv";
};
object player {
	name wd_671_794;
	file "../wd_files/wd_794.csv";
};
object player {
	name wd_671_795;
	file "../wd_files/wd_795.csv";
};
object player {
	name wd_671_796;
	file "../wd_files/wd_796.csv";
};
object player {
	name wd_671_797;
	file "../wd_files/wd_797.csv";
};
object player {
	name wd_671_798;
	file "../wd_files/wd_798.csv";
};
object player {
	name wd_671_799;
	file "../wd_files/wd_799.csv";
};
object player {
	name wd_671_800;
	file "../wd_files/wd_800.csv";
};
object player {
	name wd_671_801;
	file "../wd_files/wd_801.csv";
};
object player {
	name wd_671_802;
	file "../wd_files/wd_802.csv";
};
object player {
	name wd_671_803;
	file "../wd_files/wd_803.csv";
};
object player {
	name wd_671_804;
	file "../wd_files/wd_804.csv";
};
object player {
	name wd_671_805;
	file "../wd_files/wd_805.csv";
};
object player {
	name wd_671_806;
	file "../wd_files/wd_806.csv";
};
object player {
	name wd_671_807;
	file "../wd_files/wd_807.csv";
};
object player {
	name wd_671_808;
	file "../wd_files/wd_808.csv";
};
object player {
	name wd_671_809;
	file "../wd_files/wd_809.csv";
};
object player {
	name wd_671_810;
	file "../wd_files/wd_810.csv";
};
object player {
	name wd_671_811;
	file "../wd_files/wd_811.csv";
};
object player {
	name wd_671_812;
	file "../wd_files/wd_812.csv";
};
object player {
	name wd_671_813;
	file "../wd_files/wd_813.csv";
};
object player {
	name wd_671_814;
	file "../wd_files/wd_814.csv";
};
object player {
	name wd_671_815;
	file "../wd_files/wd_815.csv";
};
object player {
	name wd_671_816;
	file "../wd_files/wd_816.csv";
};
object player {
	name wd_671_817;
	file "../wd_files/wd_817.csv";
};
object player {
	name wd_671_818;
	file "../wd_files/wd_818.csv";
};
object player {
	name wd_671_819;
	file "../wd_files/wd_819.csv";
};
object player {
	name wd_671_820;
	file "../wd_files/wd_820.csv";
};
object player {
	name wd_671_821;
	file "../wd_files/wd_821.csv";
};
object player {
	name wd_671_822;
	file "../wd_files/wd_822.csv";
};
object player {
	name wd_671_823;
	file "../wd_files/wd_823.csv";
};
object player {
	name wd_671_824;
	file "../wd_files/wd_824.csv";
};
object player {
	name wd_671_825;
	file "../wd_files/wd_825.csv";
};
object player {
	name wd_671_826;
	file "../wd_files/wd_826.csv";
};
object player {
	name wd_671_827;
	file "../wd_files/wd_827.csv";
};
object player {
	name wd_671_828;
	file "../wd_files/wd_828.csv";
};
object player {
	name wd_671_829;
	file "../wd_files/wd_829.csv";
};
object player {
	name wd_671_830;
	file "../wd_files/wd_830.csv";
};
object player {
	name wd_671_831;
	file "../wd_files/wd_831.csv";
};
object player {
	name wd_671_832;
	file "../wd_files/wd_832.csv";
};
object player {
	name wd_671_833;
	file "../wd_files/wd_833.csv";
};
object player {
	name wd_671_834;
	file "../wd_files/wd_834.csv";
};
object player {
	name wd_671_835;
	file "../wd_files/wd_835.csv";
};
object player {
	name wd_671_836;
	file "../wd_files/wd_836.csv";
};
object player {
	name wd_671_837;
	file "../wd_files/wd_837.csv";
};
object player {
	name wd_671_838;
	file "../wd_files/wd_838.csv";
};
object player {
	name wd_671_839;
	file "../wd_files/wd_839.csv";
};
object player {
	name wd_671_840;
	file "../wd_files/wd_840.csv";
};
object player {
	name wd_680_841;
	file "../wd_files/wd_841.csv";
};
object player {
	name wd_680_842;
	file "../wd_files/wd_842.csv";
};
object player {
	name wd_680_843;
	file "../wd_files/wd_843.csv";
};
object player {
	name wd_680_844;
	file "../wd_files/wd_844.csv";
};
object player {
	name wd_680_845;
	file "../wd_files/wd_845.csv";
};
object player {
	name wd_680_846;
	file "../wd_files/wd_846.csv";
};
object player {
	name wd_680_847;
	file "../wd_files/wd_847.csv";
};
object player {
	name wd_680_848;
	file "../wd_files/wd_848.csv";
};
object player {
	name wd_680_849;
	file "../wd_files/wd_849.csv";
};
object player {
	name wd_680_850;
	file "../wd_files/wd_850.csv";
};
object player {
	name wd_680_851;
	file "../wd_files/wd_851.csv";
};
object player {
	name wd_680_852;
	file "../wd_files/wd_852.csv";
};
object player {
	name wd_680_853;
	file "../wd_files/wd_853.csv";
};
object player {
	name wd_680_854;
	file "../wd_files/wd_854.csv";
};
object player {
	name wd_680_855;
	file "../wd_files/wd_855.csv";
};
object player {
	name wd_680_856;
	file "../wd_files/wd_856.csv";
};
object player {
	name wd_680_857;
	file "../wd_files/wd_857.csv";
};
object player {
	name wd_680_858;
	file "../wd_files/wd_858.csv";
};
object player {
	name wd_680_859;
	file "../wd_files/wd_859.csv";
};
object player {
	name wd_680_860;
	file "../wd_files/wd_860.csv";
};
object player {
	name wd_680_861;
	file "../wd_files/wd_861.csv";
};
object player {
	name wd_680_862;
	file "../wd_files/wd_862.csv";
};
object player {
	name wd_680_863;
	file "../wd_files/wd_863.csv";
};
object player {
	name wd_680_864;
	file "../wd_files/wd_864.csv";
};
object player {
	name wd_680_865;
	file "../wd_files/wd_865.csv";
};
object player {
	name wd_680_866;
	file "../wd_files/wd_866.csv";
};
object player {
	name wd_680_867;
	file "../wd_files/wd_867.csv";
};
object player {
...