glm/downstream_objects.glm
object triplex_meter {
	name trip_node_meter_0;
	phases AS;
	nominal_voltage 120.0;
};
object triplex_meter {
	name trip_node_meter_1;
	phases AS;
	nominal_voltage 120.0;
};
object triplex_meter {
	name trip_node_meter_2;
	phases AS;
	nominal_voltage 120.0;
};
object triplex_meter {
	name trip_node_meter_3;
	phases AS;
	nominal_voltage 120.0;
};
object triplex_meter {
	name trip_node_meter_4;
	phases AS;
	nominal_voltage 120.0;
};
object triplex_meter {
	name trip_node_meter_5;
	phases AS;
	nominal_voltage 120.0;
};
object triplex_meter {
	name trip_node_meter_6;
	phases AS;
	nominal_voltage 120.0;
};
object triplex_meter {
	name trip_node_meter_7;
	phases AS;
	nominal_voltage 120.0;
};
object triplex_meter {
	name trip_node_meter_8;
	phases AS;
	nominal_voltage 120.0;
};
object triplex_meter {
	name trip_node_meter_9;
	phases AS;
	nominal_voltage 120.0;
};
object triplex_meter {
	name trip_node_meter_10;
	phases AS;
	nominal_voltage 120.0;
};
object triplex_meter {
	name trip_node_meter_11;
	phases AS;
	nominal_voltage 120.0;
};
object triplex_meter {
	name trip_node_meter_12;
	phases AS;
	nominal_voltage 120.0;
};
object triplex_meter {
	name trip_node_meter_13;
	phases AS;
	nominal_voltage 120.0;
};
object triplex_meter {
	name trip_node_meter_14;
	phases AS;
	nominal_voltage 120.0;
};
object triplex_meter {
	name trip_node_meter_15;
	phases AS;
	nominal_voltage 120.0;
};
object triplex_meter {
	name trip_node_meter_16;
	phases AS;
	nominal_voltage 120.0;
};
object triplex_meter {
	name trip_node_meter_17;
	phases AS;
	nominal_voltage 120.0;
};
object triplex_meter {
	name trip_node_meter_18;
	phases AS;
	nominal_voltage 120.0;
};
object triplex_meter {
	name trip_node_meter_19;
	phases AS;
	nominal_voltage 120.0;
};
object triplex_meter {
	name trip_node_meter_20;
	phases AS;
	nominal_voltage 120.0;
};
object triplex_meter {
	name trip_node_meter_21;
	phases AS;
	nominal_voltage 120.0;
};
object triplex_meter {
	name trip_node_meter_22;
	phases AS;
	nominal_voltage 120.0;
};
object triplex_meter {
	name trip_node_meter_23;
	phases AS;
	nominal_voltage 120.0;
};
object triplex_meter {
	name trip_node_meter_24;
	phases AS;
	nominal_voltage 120.0;
};
object triplex_meter {
	name trip_node_meter_25;
	phases AS;
	nominal_voltage 120.0;
};
object triplex_meter {
	name trip_node_meter_26;
	phases AS;
	nominal_voltage 120.0;
};
object triplex_meter {
	name trip_node_meter_27;
	phases AS;
	nominal_voltage 120.0;
};
object triplex_meter {
	name trip_node_meter_28;
	phases AS;
	nominal_voltage 120.0;
};
object triplex_meter {
	name trip_node_meter_29;
	phases AS;
	nominal_voltage 120.0;
};
object triplex_meter {
	name trip_node_meter_30;
	phases AS;
	nominal_voltage 120.0;
};
object triplex_meter {
	name trip_node_meter_31;
	phases AS;
	nominal_voltage 120.0;
};
object triplex_meter {
	name trip_node_meter_32;
	phases AS;
	nominal_voltage 120.0;
};
object triplex_meter {
	name trip_node_meter_33;
	phases AS;
	nominal_voltage 120.0;
};
object triplex_meter {
	name trip_node_meter_34;
	phases AS;
	nominal_voltage 120.0;
};
object triplex_meter {
	name trip_node_meter_35;
	phases AS;
	nominal_voltage 120.0;
};
object triplex_meter {
	name trip_node_meter_36;
	phases AS;
	nominal_voltage 120.0;
};
object triplex_meter {
	name trip_node_meter_37;
	phases AS;
	nominal_voltage 120.0;
};
object triplex_meter {
	name trip_node_meter_38;
	phases AS;
	nominal_voltage 120.0;
};
object triplex_meter {
	name trip_node_meter_39;
	phases AS;
	nominal_voltage 120.0;
};
object triplex_meter {
	name trip_node_meter_40;
	phases CS;
	nominal_voltage 120.0;
};
object triplex_meter {
	name trip_node_meter_41;
	phases CS;
	nominal_voltage 120.0;
};
object triplex_meter {
	name trip_node_meter_42;
	phases CS;
	nominal_voltage 120.0;
};
object triplex_meter {
	name trip_node_meter_43;
	phases CS;
	nominal_voltage 120.0;
};
object triplex_meter {
	name trip_node_meter_44;
	phases CS;
	nominal_voltage 120.0;
};
object triplex_meter {
	name trip_node_meter_45;
	phases CS;
	nominal_voltage 120.0;
};
object triplex_meter {
	name trip_node_meter_46;
	phases CS;
	nominal_voltage 120.0;
};
object triplex_meter {
	name trip_node_meter_47;
	phases CS;
	nominal_voltage 120.0;
};
object triplex_meter {
	name trip_node_meter_48;
	phases CS;
	nominal_voltage 120.0;
};
object triplex_meter {
	name trip_node_meter_49;
	phases CS;
	nominal_voltage 120.0;
};
object triplex_meter {
	name trip_node_meter_50;
	phases CS;
	nominal_voltage 120.0;
};
object triplex_meter {
	name trip_node_meter_51;
	phases CS;
	nominal_voltage 120.0;
};
object triplex_meter {
	name trip_node_meter_52;
	phases CS;
	nominal_voltage 120.0;
};
object triplex_meter {
	name trip_node_meter_53;
	phases CS;
	nominal_voltage 120.0;
};
object triplex_meter {
	name trip_node_meter_54;
	phases CS;
	nominal_voltage 120.0;
};
object triplex_meter {
	name trip_node_meter_55;
	phases CS;
	nominal_voltage 120.0;
};
object triplex_meter {
	name trip_node_meter_56;
	phases CS;
	nominal_voltage 120.0;
};
object triplex_meter {
	name trip_node_meter_57;
	phases CS;
	nominal_voltage 120.0;
};
object triplex_meter {
	name trip_node_meter_58;
	phases CS;
	nominal_voltage 120.0;
};
object triplex_meter {
	name trip_node_meter_59;
	phases CS;
	nominal_voltage 120.0;
};
object triplex_meter {
	name trip_node_meter_60;
	phases CS;
	nominal_voltage 120.0;
};
object triplex_meter {
	name trip_node_meter_61;
	phases CS;
	nominal_voltage 120.0;
};
object triplex_meter {
	name trip_node_meter_62;
	phases CS;
	nominal_voltage 120.0;
};
object triplex_meter {
	name trip_node_meter_63;
	phases CS;
	nominal_voltage 120.0;
};
object triplex_meter {
	name trip_node_meter_64;
	phases CS;
	nominal_voltage 120.0;
};
object triplex_meter {
	name trip_node_meter_65;
	phases CS;
	nominal_voltage 120.0;
};
object triplex_meter {
	name trip_node_meter_66;
	phases CS;
	nominal_voltage 120.0;
};
object triplex_meter {
	name trip_node_meter_67;
	phases CS;
	nominal_voltage 120.0;
};
object triplex_meter {
	name trip_node_meter_68;
	phases CS;
	nominal_voltage 120.0;
};
object triplex_meter {
	name trip_node_meter_69;
	phases CS;
	nominal_voltage 120.0;
};
object triplex_meter {
	name trip_node_meter_70;
	phases CS;
	nominal_voltage 120.0;
};
object triplex_meter {
	name trip_node_meter_71;
	phases CS;
	nominal_voltage 120.0;
};
object triplex_meter {
	name trip_node_meter_72;
	phases CS;
	nominal_voltage 120.0;
};
object triplex_meter {
	name trip_node_meter_73;
	phases CS;
	nominal_voltage 120.0;
};
object triplex_meter {
	name trip_node_meter_74;
	phases CS;
	nominal_voltage 120.0;
};
object triplex_meter {
	name trip_node_meter_75;
	phases CS;
	nominal_voltage 120.0;
};
object triplex_meter {
	name trip_node_meter_76;
	phases CS;
	nominal_voltage 120.0;
};
object triplex_meter {
	name trip_node_meter_77;
	phases CS;
	nominal_voltage 120.0;
};
object triplex_meter {
	name trip_node_meter_78;
	phases CS;
	nominal_voltage 120.0;
};
object triplex_meter {
	name trip_node_meter_79;
	phases CS;
	nominal_voltage 120.0;
};
object triplex_meter {
	name trip_node_meter_80;
	phases CS;
	nominal_voltage 120.0;
};
object triplex_meter {
	name trip_node_meter_81;
	phases CS;
	nominal_voltage 120.0;
};
object triplex_meter {
	name trip_node_meter_82;
	phases CS;
	nominal_voltage 120.0;
};
object triplex_meter {
	name trip_node_meter_83;
	phases CS;
	nominal_voltage 120.0;
};
object triplex_meter {
	name trip_node_meter_84;
	phases CS;
	nominal_voltage 120.0;
};
object triplex_meter {
	name trip_node_meter_85;
	phases CS;
	nominal_voltage 120.0;
};
object triplex_meter {
	name trip_node_meter_86;
	phases CS;
	nominal_voltage 120.0;
};
object triplex_meter {
	name trip_node_meter_87;
	phases CS;
	nominal_voltage 120.0;
};
object triplex_meter {
	name trip_node_meter_88;
	phases CS;
	nominal_voltage 120.0;
};
object triplex_meter {
	name trip_node_meter_89;
	phases CS;
	nominal_voltage 120.0;
};
object triplex_meter {
	name trip_node_meter_90;
	phases CS;
	nominal_voltage 120.0;
};
object triplex_meter {
	name trip_node_meter_91;
	phases CS;
	nominal_voltage 120.0;
};
object triplex_meter {
	name trip_node_meter_92;
	phases CS;
	nominal_voltage 120.0;
};
object triplex_meter {
	name trip_node_meter_93;
	phases CS;
	nominal_voltage 120.0;
};
object triplex_meter {
	name trip_node_meter_94;
	phases CS;
	nominal_voltage 120.0;
};
object triplex_meter {
	name trip_node_meter_95;
	phases CS;
	nominal_voltage 120.0;
};
object triplex_meter {
	name trip_node_meter_96;
	phases CS;
	nominal_voltage 120.0;
};
object triplex_meter {
	name trip_node_meter_97;
	phases CS;
	nominal_voltage 120.0;
};
object triplex_meter {
	name trip_node_meter_98;
	phases CS;
	nominal_voltage 120.0;
};
object triplex_meter {
	name trip_node_meter_99;
	phases CS;
	nominal_voltage 120.0;
};
object triplex_meter {
	name trip_node_meter_100;
	phases CS;
	nominal_voltage 120.0;
};
object triplex_meter {
	name trip_node_meter_101;
	phases CS;
	nominal_voltage 120.0;
};
object triplex_meter {
	name trip_node_meter_102;
	phases CS;
	nominal_voltage 120.0;
};
object triplex_meter {
	name trip_node_meter_103;
	phases CS;
	nominal_voltage 120.0;
};
object triplex_meter {
	name trip_node_meter_104;
	phases CS;
	nominal_voltage 120.0;
};
object triplex_meter {
	name trip_node_meter_105;
	phases CS;
	nominal_voltage 120.0;
};
object triplex_meter {
	name trip_node_meter_106;
	phases CS;
	nominal_voltage 120.0;
};
object triplex_meter {
	name trip_node_meter_107;
	phases CS;
	nominal_voltage 120.0;
};
object triplex_meter {
	name trip_node_meter_108;
	phases CS;
	nominal_voltage 120.0;
};
object triplex_meter {
	name trip_node_meter_109;
	phases CS;
	nominal_voltage 120.0;
};
object triplex_meter {
	name trip_node_meter_110;
	phases CS;
	nominal_voltage 120.0;
};
object triplex_meter {
	name trip_node_meter_111;
	phases CS;
	nominal_voltage 120.0;
};
object triplex_meter {
	name trip_node_meter_112;
	phases CS;
	nominal_voltage 120.0;
};
object triplex_meter {
	name trip_node_meter_113;
	phases CS;
	nominal_voltage 120.0;
};
object triplex_meter {
	name trip_node_meter_114;
	phases CS;
	nominal_voltage 120.0;
};
object triplex_meter {
	name trip_node_meter_115;
	phases CS;
	nominal_voltage 120.0;
};
object triplex_meter {
	name trip_node_meter_116;
	phases CS;
	nominal_voltage 120.0;
};
object triplex_meter {
	name trip_node_meter_117;
	phases CS;
	nominal_voltage 120.0;
};
object triplex_meter {
	name trip_node_meter_118;
	phases CS;
	nominal_voltage 120.0;
};
object triplex_meter {
	name trip_node_meter_119;
	phases CS;
	nominal_voltage 120.0;
};
object triplex_meter {
	name trip_node_meter_120;
	phases AS;
	nominal_voltage 120.0;
};
object triplex_meter {
	name trip_node_meter_121;
	phases AS;
	nominal_voltage 120.0;
};
object triplex_meter {
	name trip_node_meter_122;
	phases AS;
	nominal_voltage 120.0;
};
object triplex_meter {
	name trip_node_meter_123;
	phases AS;
	nominal_voltage 120.0;
};
object triplex_meter {
	name trip_node_meter_124;
	phases AS;
	nominal_voltage 120.0;
};
object triplex_meter {
	name trip_node_meter_125;
	phases AS;
	nominal_voltage 120.0;
};
object triplex_meter {
	name trip_node_meter_126;
	phases AS;
	nominal_voltage 120.0;
};
object triplex_meter {
	name trip_node_meter_127;
	phases AS;
	nominal_voltage 120.0;
};
object triplex_meter {
	name trip_node_meter_128;
	phases AS;
	nominal_voltage 120.0;
};
object triplex_meter {
	name trip_node_meter_129;
	phases AS;
	nominal_voltage 120.0;
};
object triplex_meter {
	name trip_node_meter_130;
	phases AS;
	nominal_voltage 120.0;
};
object triplex_meter {
	name trip_node_meter_131;
	phases AS;
	nominal_voltage 120.0;
};
object triplex_meter {
	name trip_node_meter_132;
	phases AS;
	nominal_voltage 120.0;
};
object triplex_meter {
	name trip_node_meter_133;
	phases AS;
	nominal_voltage 120.0;
};
object triplex_meter {
	name trip_node_meter_134;
	phases AS;
	nominal_voltage 120.0;
};
object triplex_meter {
	name trip_node_meter_135;
	phases AS;
	nominal_voltage 120.0;
};
object triplex_meter {
	name trip_node_meter_136;
	phases AS;
	nominal_voltage 120.0;
};
object triplex_meter {
	name trip_node_meter_137;
	phases AS;
	nominal_voltage 120.0;
};
object triplex_meter {
	name trip_node_meter_138;
	phases AS;
	nominal_voltage 120.0;
};
object triplex_meter {
	name trip_node_meter_139;
	phases AS;
	nominal_voltage 120.0;
};
object triplex_meter {
	name trip_node_meter_140;
	phases AS;
	nominal_voltage 120.0;
};
object triplex_meter {
	name trip_node_meter_141;
	phases AS;
	nominal_voltage 120.0;
};
object triplex_meter {
	name trip_node_meter_142;
	phases AS;
	nominal_voltage 120.0;
};
object triplex_meter {
	name trip_node_meter_143;
	phases AS;
	nominal_voltage 120.0;
};
object triplex_meter {
	name trip_node_meter_144;
	phases AS;
	nominal_voltage 120.0;
};
object triplex_meter {
	name trip_node_meter_145;
	phases AS;
	nominal_voltage 120.0;
};
object triplex_meter {
	name trip_node_meter_146;
	phases AS;
	nominal_voltage 120.0;
};
object triplex_meter {
	name trip_node_meter_147;
	phases AS;
	nominal_voltage 120.0;
};
object triplex_meter {
	name trip_node_meter_148;
	phases AS;
	nominal_voltage 120.0;
};
object triplex_meter {
	name trip_node_meter_149;
	phases AS;
	nominal_voltage 120.0;
};
object triplex_meter {
	name trip_node_meter_150;
	phases AS;
	nominal_voltage 120.0;
};
object triplex_meter {
	name trip_node_meter_151;
	phases AS;
	nominal_voltage 120.0;
};
object triplex_meter {
	name trip_node_meter_152;
	phases AS;
	nominal_voltage 120.0;
};
object triplex_meter {
	name trip_node_meter_153;
	phases AS;
	nominal_voltage 120.0;
};
object triplex_meter {
	name trip_node_meter_154;
	phases AS;
	nominal_voltage 120.0;
};
object triplex_meter {
	name trip_node_meter_155;
	phases AS;
	nominal_voltage 120.0;
};
object triplex_meter {
	name trip_node_meter_156;
	phases AS;
	nominal_voltage 120.0;
};
object triplex_meter {
	name trip_node_meter_157;
	phases AS;
	nominal_voltage 120.0;
};
object triplex_meter {
	name trip_node_meter_158;
	phases AS;
	nominal_voltage 120.0;
};
object triplex_meter {
	name trip_node_meter_159;
	phases AS;
	nominal_voltage 120.0;
};
object triplex_meter {
	name trip_node_meter_160;
	phases BS;
	nominal_voltage 120.0;
};
object triplex_meter {
	name trip_node_meter_161;
	phases BS;
	nominal_voltage 120.0;
};
object triplex_meter {
	name trip_node_meter_162;
	phases BS;
	nominal_voltage 120.0;
};
object triplex_meter {
	name trip_node_meter_163;
	phases BS;
	nominal_voltage 120.0;
};
object triplex_meter {
	name trip_node_meter_164;
	phases BS;
	nominal_voltage 120.0;
};
object triplex_meter {
	name trip_node_meter_165;
	phases BS;
	nominal_voltage 120.0;
};
object triplex_meter {
	name trip_node_meter_166;
	phases BS;
	nominal_voltage 120.0;
};
object triplex_meter {
	name trip_node_meter_167;
	phases BS;
	nominal_voltage 120.0;
};
object triplex_meter {
	name trip_node_meter_168;
	phases BS;
	nominal_voltage 120.0;
};
object triplex_meter {
	name trip_node_meter_169;
	phases BS;
	nominal_voltage 120.0;
};
object triplex_meter {
	name trip_node_meter_170;
	phases BS;
	nominal_voltage 120.0;
};
object triplex_meter {
	name trip_node_meter_171;
	phases BS;
	nominal_voltage 120.0;
};
object triplex_meter {
	name trip_node_meter_172;
	phases BS;
	nominal_voltage 120.0;
};
object triplex_meter {
	name trip_node_meter_173;
	phases BS;
	nominal_voltage 120.0;
};
object triplex_meter {
	name trip_node_meter_174;
	phases BS;
	nominal_voltage 120.0;
};
object triplex_meter {
	name trip_node_meter_175;
	phases BS;
	nominal_voltage 120.0;
};
object triplex_meter {
	name trip_node_meter_176;
	phases BS;
	nominal_voltage 120.0;
};
object triplex_meter {
	name trip_node_meter_177;
	phases BS;
	nominal_voltage 120.0;
};
object triplex_meter {
	name trip_node_meter_178;
	phases BS;
	nominal_voltage 120.0;
};
object triplex_meter {
	name trip_node_meter_179;
	phases BS;
	nominal_voltage 120.0;
};
object triplex_meter {
	name trip_node_meter_180;
	phases BS;
	nominal_voltage 120.0;
};
object triplex_meter {
	name trip_node_meter_181;
	phases BS;
	nominal_voltage 120.0;
};
object triplex_meter {
	name trip_node_meter_182;
	phases BS;
	nominal_voltage 120.0;
};
object triplex_meter {
	name trip_node_meter_183;
	phases BS;
	nominal_voltage 120.0;
};
object triplex_meter {
	name trip_node_meter_184;
	phases BS;
	nominal_voltage 120.0;
};
object triplex_meter {
	name trip_node_meter_185;
	phases BS;
	nominal_voltage 120.0;
};
object triplex_meter {
	name trip_node_meter_186;
	phases BS;
	nominal_voltage 120.0;
};
object triplex_meter {
	name trip_node_meter_187;
	phases BS;
	nominal_voltage 120.0;
};
object triplex_meter {
	name trip_node_meter_188;
	phases BS;
	nominal_voltage 120.0;
};
object triplex_meter {
	name trip_node_meter_189;
	phases BS;
	nominal_voltage 120.0;
};
object triplex_meter {
	name trip_node_meter_190;
	phases BS;
	nominal_voltage 120.0;
};
object triplex_meter {
	name trip_node_meter_191;
	phases BS;
	nominal_voltage 120.0;
};
object triplex_meter {
	name trip_node_meter_192;
	phases BS;
	nominal_voltage 120.0;
};
object triplex_meter {
	name trip_node_meter_193;
	phases BS;
	nominal_voltage 120.0;
};
object triplex_meter {
	name trip_node_meter_194;
	phases BS;
	nominal_voltage 120.0;
};
object triplex_meter {
	name trip_node_meter_195;
	phases BS;
	nominal_voltage 120.0;
};
object triplex_meter {
	name trip_node_meter_196;
	phases BS;
	nominal_voltage 120.0;
};
object triplex_meter {
	name trip_node_meter_197;
	phases BS;
	nominal_voltage 120.0;
};
object triplex_meter {
	name trip_node_meter_198;
	phases BS;
	nominal_voltage 120.0;
};
object triplex_meter {
	name trip_node_meter_199;
	phases BS;
	nominal_voltage 120.0;
};
object triplex_meter {
	name trip_node_meter_200;
	phases CS;
	nominal_voltage 120.0;
};
object triplex_meter {
	name trip_node_meter_201;
	phases CS;
	nominal_voltage 120.0;
};
object triplex_meter {
	name trip_node_meter_202;
	phases CS;
	nominal_voltage 120.0;
};
object triplex_meter {
	name trip_node_meter_203;
	phases CS;
	nominal_voltage 120.0;
};
object triplex_meter {
	name trip_node_meter_204;
	phases CS;
	nominal_voltage 120.0;
};
object triplex_meter {
	name trip_node_meter_205;
	phases CS;
	nominal_voltage 120.0;
};
object triplex_meter {
	name trip_node_meter_206;
	phases CS;
	nominal_voltage 120.0;
};
object triplex_meter {
	name trip_node_meter_207;
	phases CS;
	nominal_voltage 120.0;
};
object triplex_meter {
	name trip_node_meter_208;
	phases CS;
	nominal_voltage 120.0;
};
object triplex_meter {
	name trip_node_meter_209;
	phases CS;
	nominal_voltage 120.0;
};
object triplex_meter {
	name trip_node_meter_210;
	phases CS;
	nominal_voltage 120.0;
};
object triplex_meter {
	name trip_node_meter_211;
	phases CS;
	nominal_voltage 120.0;
};
object triplex_meter {
	name trip_node_meter_212;
	phases CS;
	nominal_voltage 120.0;
};
object triplex_meter {
	name trip_node_meter_213;
	phases CS;
	nominal_voltage 120.0;
};
object triplex_meter {
	name trip_node_meter_214;
	phases CS;
	nominal_voltage 120.0;
};
object triplex_meter {
	name trip_node_meter_215;
	phases CS;
	nominal_voltage 120.0;
};
object triplex_meter {
	name trip_node_meter_216;
	phases CS;
	nominal_voltage 120.0;
};
object triplex_meter {
	name trip_node_meter_217;
	phases CS;
	nominal_voltage 120.0;
};
object triplex_meter {
	name trip_node_meter_218;
	phases CS;
	nominal_voltage 120.0;
};
object triplex_meter {
	name trip_node_meter_219;
	phases CS;
	nominal_voltage 120.0;
};
object triplex_meter {
	name trip_node_meter_220;
	phases CS;
	nominal_voltage 120.0;
};
object triplex_meter {
	name trip_node_meter_221;
	phases CS;
	nominal_voltage 120.0;
};
object triplex_meter {
	name trip_node_meter_222;
	phases CS;
	nominal_voltage 120.0;
};
object triplex_meter {
	name trip_node_meter_223;
	phases CS;
	nominal_voltage 120.0;
};
object triplex_meter {
	name trip_node_meter_224;
	phases CS;
	nominal_voltage 120.0;
};
object triplex_meter {
	name trip_node_meter_225;
	phases CS;
	nominal_voltage 120.0;
};
object triplex_meter {
	name trip_node_meter_226;
	phases CS;
	nominal_voltage 120.0;
};
object triplex_meter {
	name trip_node_meter_227;
	phases CS;
	nominal_voltage 120.0;
};
object triplex_meter {
	name trip_node_meter_228;
	phases CS;
	nominal_voltage 120.0;
};
object triplex_meter {
	name trip_node_meter_229;
	phases CS;
	nominal_voltage 120.0;
};
object triplex_meter {
	name trip_node_meter_230;
	phases CS;
	nominal_voltage 120.0;
};
object triplex_meter {
	name trip_node_meter_231;
	phases CS;
	nominal_voltage 120.0;
};
object triplex_meter {
	name trip_node_meter_232;
	phases CS;
	nominal_voltage 120.0;
};
object triplex_meter {
	name trip_node_meter_233;
	phases CS;
	nominal_voltage 120.0;
};
object triplex_meter {
	name trip_node_meter_234;
	phases CS;
	nominal_voltage 120.0;
};
object triplex_meter {
	name trip_node_meter_235;
	phases CS;
	nominal_voltage 120.0;
};
object triplex_meter {
	name trip_node_meter_236;
	phases CS;
	nominal_voltage 120.0;
};
object triplex_meter {
	name trip_node_meter_237;
	phases CS;
	nominal_voltage 120.0;
};
object triplex_meter {
	name trip_node_meter_238;
	phases CS;
	nominal_voltage 120.0;
};
object triplex_meter {
	name trip_node_meter_239;
	phases CS;
	nominal_voltage 120.0;
};
object triplex_meter {
	name trip_node_meter_240;
	phases AS;
	nominal_voltage 120.0;
};
object triplex_meter {
	name trip_node_meter_241;
	phases AS;
	nominal_voltage 120.0;
};
object triplex_meter {
	name trip_node_meter_242;
	phases AS;
	nominal_voltage 120.0;
};
object triplex_meter {
	name trip_node_meter_243;
	phases AS;
	nominal_voltage 120.0;
};
object triplex_meter {
	name trip_node_meter_244;
	phases AS;
	nominal_voltage 120.0;
};
object triplex_meter {
	name trip_node_meter_245;
	phases AS;
	nominal_voltage 120.0;
};
object triplex_meter {
	name trip_node_meter_246;
	phases AS;
	nominal_voltage 120.0;
};
object triplex_meter {
	name trip_node_meter_247;
	phases AS;
	nominal_voltage 120.0;
};
object triplex_meter {
	name trip_node_meter_248;
	phases AS;
	nominal_voltage 120.0;
};
object triplex_meter {
	name trip_node_meter_249;
	phases AS;
	nominal_voltage 120.0;
};
object triplex_meter {
	name trip_node_meter_250;
	phases AS;
	nominal_voltage 120.0;
};
object triplex_meter {
	name trip_node_meter_251;
	phases AS;
	nominal_voltage 120.0;
};
object triplex_meter {
	name trip_node_meter_252;
	phases AS;
	nominal_voltage 120.0;
};
object triplex_meter {
	name trip_node_meter_253;
	phases AS;
	nominal_voltage 120.0;
};
object triplex_meter {
	name trip_node_meter_254;
	phases AS;
	nominal_voltage 120.0;
};
object triplex_meter {
	name trip_node_meter_255;
	phases AS;
	nominal_voltage 120.0;
};
object triplex_meter {
	name trip_node_meter_256;
	phases AS;
	nominal_voltage 120.0;
};
object triplex_meter {
	name trip_node_meter_257;
	phases AS;
	nominal_voltage 120.0;
};
object triplex_meter {
	name trip_node_meter_258;
	phases AS;
	nominal_voltage 120.0;
};
object triplex_meter {
	name trip_node_meter_259;
	phases AS;
	nominal_voltage 120.0;
};
object triplex_meter {
	name trip_node_meter_260;
	phases AS;
	nominal_voltage 120.0;
};
object triplex_meter {
	name trip_node_meter_261;
	phases AS;
	nominal_voltage 120.0;
};
object triplex_meter {
	name trip_node_meter_262;
	phases AS;
	nominal_voltage 120.0;
};
object triplex_meter {
	name trip_node_meter_263;
	phases AS;
	nominal_voltage 120.0;
};
object triplex_meter {
	name trip_node_meter_264;
	phases AS;
	nominal_voltage 120.0;
};
object triplex_meter {
	name trip_node_meter_265;
	phases AS;
	nominal_voltage 120.0;
};
object triplex_meter {
	name trip_node_meter_266;
	phases AS;
	nominal_voltage 120.0;
};
object triplex_meter {
	name trip_node_meter_267;
	phases AS;
	nominal_voltage 120.0;
};
object triplex_meter {
	name trip_node_meter_268;
	phases AS;
	nominal_voltage 120.0;
};
object triplex_meter {
	name trip_node_meter_269;
	phases AS;
	nominal_voltage 120.0;
};
object triplex_meter {
	name trip_node_meter_270;
	phases AS;
	nominal_voltage 120.0;
};
object triplex_meter {
	name trip_node_meter_271;
	phases AS;
	nominal_voltage 120.0;
};
object triplex_meter {
	name trip_node_meter_272;
	phases AS;
	nominal_voltage 120.0;
};
object triplex_meter {
	name trip_node_meter_273;
	phases AS;
	nominal_voltage 120.0;
};
object triplex_meter {
	name trip_node_meter_274;
	phases AS;
	nominal_voltage 120.0;
};
object triplex_meter {
	name trip_node_meter_275;
	phases AS;
	nominal_voltage 120.0;
};
object triplex_meter {
	name trip_node_meter_276;
	phases AS;
	nominal_voltage 120.0;
};
object triplex_meter {
	name trip_node_meter_277;
	phases AS;
	nominal_voltage 120.0;
};
object triplex_meter {
	name trip_node_meter_278;
	phases AS;
	nominal_voltage 120.0;
};
object triplex_meter {
	name trip_node_meter_279;
	phases AS;
	nominal_voltage 120.0;
};
object triplex_meter {
	name trip_node_meter_280;
	phases BS;
	nominal_voltage 120.0;
};
object triplex_meter {
	name trip_node_meter_281;
	phases BS;
	nominal_voltage 120.0;
};
object triplex_meter {
	name trip_node_meter_282;
	phases BS;
	nominal_voltage 120.0;
};
object triplex_meter {
	name trip_node_meter_283;
	phases BS;
	nominal_voltage 120.0;
};
object triplex_meter {
	name trip_node_meter_284;
	phases BS;
	nominal_voltage 120.0;
};
object triplex_meter {
	name trip_node_meter_285;
	phases BS;
	nominal_voltage 120.0;
};
object triplex_meter {
	name trip_node_meter_286;
	phases BS;
	nominal_voltage 120.0;
};
object triplex_meter {
	name trip_node_meter_287;
	phases BS;
	nominal_voltage 120.0;
};
object triplex_meter {
	name trip_node_meter_288;
	phases BS;
	nominal_voltage 120.0;
};
object triplex_meter {
	name trip_node_meter_289;
	phases BS;
	nominal_voltage 120.0;
};
object triplex_meter {
	name trip_node_meter_290;
	phases BS;
	nominal_voltage 120.0;
};
object triplex_meter {
	name trip_node_meter_291;
	phases BS;
	nominal_voltage 120.0;
};
object triplex_meter {
	name trip_node_meter_292;
	phases BS;
	nominal_voltage 120.0;
};
object triplex_meter {
	name trip_node_meter_293;
	phases BS;
	nominal_voltage 120.0;
};
object triplex_meter {
	name trip_node_meter_294;
	phases BS;
	nominal_voltage 120.0;
};
object triplex_meter {
	name trip_node_meter_295;
	phases BS;
	nominal_voltage 120.0;
};
object triplex_meter {
	name trip_node_meter_296;
	phases BS;
	nominal_voltage 120.0;
};
object triplex_meter {
	name trip_node_meter_297;
	phases BS;
	nominal_voltage 120.0;
};
object triplex_meter {
	name trip_node_meter_298;
	phases BS;
	nominal_voltage 120.0;
};
object triplex_meter {
	name trip_node_meter_299;
	phases BS;
	nominal_voltage 120.0;
};
object triplex_meter {
	name trip_node_meter_300;
	phases BS;
	nominal_voltage 120.0;
};
object triplex_meter {
	name trip_node_meter_301;
	phases BS;
	nominal_voltage 120.0;
};
object triplex_meter {
	name trip_node_meter_302;
	phases BS;
	nominal_voltage 120.0;
};
object triplex_meter {
	name trip_node_meter_303;
	phases BS;
	nominal_voltage 120.0;
};
object triplex_meter {
	name trip_node_meter_304;
	phases BS;
	nominal_voltage 120.0;
};
object triplex_meter {
	name trip_node_meter_305;
	phases BS;
	nominal_voltage 120.0;
};
object triplex_meter {
	name trip_node_meter_306;
	phases BS;
	nominal_voltage 120.0;
};
object triplex_meter {
	name trip_node_meter_307;
	phases BS;
	nominal_voltage 120.0;
};
object triplex_meter {
	name trip_node_meter_308;
	phases BS;
	nominal_voltage 120.0;
};
object triplex_meter {
	name trip_node_meter_309;
	phases BS;
	nominal_voltage 120.0;
};
object triplex_meter {
	name trip_node_meter_310;
	phases BS;
	nominal_voltage 120.0;
};
object triplex_meter {
	name trip_node_meter_311;
	phases BS;
	nominal_voltage 120.0;
};
object triplex_meter {
	name trip_node_meter_312;
	phases BS;
	nominal_voltage 120.0;
};
object triplex_meter {
	name trip_node_meter_313;
	phases BS;
	nominal_voltage 120.0;
};
object triplex_meter {
	name trip_node_meter_314;
	phases BS;
	nominal_voltage 120.0;
};
object triplex_meter {
	name trip_node_meter_315;
	phases BS;
	nominal_voltage 120.0;
};
object triplex_meter {
	name trip_node_meter_316;
	phases BS;
	nominal_voltage 120.0;
};
object triplex_meter {
	name trip_node_meter_317;
	phases BS;
	nominal_voltage 120.0;
};
object triplex_meter {
	name trip_node_meter_318;
	phases BS;
	nominal_voltage 120.0;
};
object triplex_meter {
	name trip_node_meter_319;
	phases BS;
	nominal_voltage 120.0;
};
object triplex_meter {
	name trip_node_meter_320;
	phases CS;
	nominal_voltage 120.0;
};
object triplex_meter {
	name trip_node_meter_321;
	phases CS;
	nominal_voltage 120.0;
};
object triplex_meter {
	name trip_node_meter_322;
	phases CS;
	nominal_voltage 120.0;
};
object triplex_meter {
	name trip_node_meter_323;
	phases CS;
	nominal_voltage 120.0;
};
object triplex_meter {
	name trip_node_meter_324;
	phases CS;
	nominal_voltage 120.0;
};
object triplex_meter {
	name trip_node_meter_325;
	phases CS;
	nominal_voltage 120.0;
};
object triplex_meter {
	name trip_node_meter_326;
	phases CS;
	nominal_voltage 120.0;
};
object triplex_meter {
	name trip_node_meter_327;
	phases CS;
	nominal_voltage 120.0;
};
object triplex_meter {
	name trip_node_meter_328;
	phases CS;
	nominal_voltage 120.0;
};
object triplex_meter {
	name trip_node_meter_329;
	phases CS;
	nominal_voltage 120.0;
};
object triplex_meter {
	name trip_node_meter_330;
	phases CS;
	nominal_voltage 120.0;
};
object triplex_meter {
	name trip_node_meter_331;
	phases CS;
	nominal_voltage 120.0;
};
object triplex_meter {
	name trip_node_meter_332;
	phases CS;
	nominal_voltage 120.0;
};
object triplex_meter {
	name trip_node_meter_333;
	phases CS;
	nominal_voltage 120.0;
};
object triplex_meter {
	name trip_node_meter_334;
	phases CS;
	nominal_voltage 120.0;
};
object triplex_meter {
	name trip_node_meter_335;
	phases CS;
	nominal_voltage 120.0;
};
object triplex_meter {
	name trip_node_meter_336;
	phases CS;
	nominal_voltage 120.0;
};
object triplex_meter {
	name trip_node_meter_337;
	phases CS;
	nominal_voltage 120.0;
};
object triplex_meter {
...